* SPICE3 file created from bias.ext - technology: sky130A

.subckt bias VDDA VSSA P1 P2 N2 N1
X0 a_10670_1640# a_10670_1640# a_10810_1690# VSSA sky130_fd_pr__nfet_g5v0d10v5 ad=4e+11p pd=2.8e+06u as=4e+11p ps=2.8e+06u w=1e+06u l=500000u
X1 a_6040_50# Y a_5950_50# VSSA sky130_fd_pr__nfet_g5v0d10v5 ad=4e+11p pd=2.8e+06u as=4e+11p ps=2.8e+06u w=1e+06u l=500000u
X2 a_1990_750# P1 a_1900_750# VDDA sky130_fd_pr__pfet_g5v0d10v5 ad=4e+11p pd=2.8e+06u as=4e+11p ps=2.8e+06u w=1e+06u l=500000u
X3 a_2800_990# P2 a_2710_990# VDDA sky130_fd_pr__pfet_g5v0d10v5 ad=4e+11p pd=2.8e+06u as=4e+11p ps=2.8e+06u w=1e+06u l=500000u
X4 a_10990_50# a_10670_35# a_10670_35# VSSA sky130_fd_pr__nfet_g5v0d10v5 ad=4e+11p pd=2.8e+06u as=4e+11p ps=2.8e+06u w=1e+06u l=500000u
X5 a_2260_750# P2 a_2170_750# VDDA sky130_fd_pr__pfet_g5v0d10v5 ad=4e+11p pd=2.8e+06u as=4e+11p ps=2.8e+06u w=1e+06u l=500000u
X6 a_4600_750# P1 a_4510_750# VDDA sky130_fd_pr__pfet_g5v0d10v5 ad=4e+11p pd=2.8e+06u as=4e+11p ps=2.8e+06u w=1e+06u l=500000u
X7 VDDA P2 a_2980_990# VDDA sky130_fd_pr__pfet_g5v0d10v5 ad=1.04e+13p pd=7.28e+07u as=4e+11p ps=2.8e+06u w=1e+06u l=500000u
X8 a_6940_750# P2 a_6850_750# VDDA sky130_fd_pr__pfet_g5v0d10v5 ad=4e+11p pd=2.8e+06u as=4e+11p ps=2.8e+06u w=1e+06u l=500000u
X9 a_5410_990# P2 a_5320_990# VDDA sky130_fd_pr__pfet_g5v0d10v5 ad=4e+11p pd=2.8e+06u as=4e+11p ps=2.8e+06u w=1e+06u l=500000u
X10 a_5050_50# Y a_4960_50# VSSA sky130_fd_pr__nfet_g5v0d10v5 ad=4e+11p pd=2.8e+06u as=4e+11p ps=2.8e+06u w=1e+06u l=500000u
X11 a_9550_1690# X a_9460_1690# VSSA sky130_fd_pr__nfet_g5v0d10v5 ad=4e+11p pd=2.8e+06u as=4e+11p ps=2.8e+06u w=1e+06u l=500000u
X12 a_7210_750# P2 a_7120_750# VDDA sky130_fd_pr__pfet_g5v0d10v5 ad=4e+11p pd=2.8e+06u as=4e+11p ps=2.8e+06u w=1e+06u l=500000u
X13 a_100_1690# a_n310_1640# a_10_1690# VSSA sky130_fd_pr__nfet_g5v0d10v5 ad=4e+11p pd=2.8e+06u as=4e+11p ps=2.8e+06u w=1e+06u l=500000u
X14 a_6670_50# N1 a_6580_50# VSSA sky130_fd_pr__nfet_g5v0d10v5 ad=4e+11p pd=2.8e+06u as=4e+11p ps=2.8e+06u w=1e+06u l=500000u
X15 a_460_990# P2 a_370_990# VDDA sky130_fd_pr__pfet_g5v0d10v5 ad=4e+11p pd=2.8e+06u as=4e+11p ps=2.8e+06u w=1e+06u l=500000u
X16 a_2080_50# X a_1990_50# VSSA sky130_fd_pr__nfet_g5v0d10v5 ad=4e+11p pd=2.8e+06u as=4e+11p ps=2.8e+06u w=1e+06u l=500000u
X17 a_10180_1690# X Z VSSA sky130_fd_pr__nfet_g5v0d10v5 ad=4e+11p pd=2.8e+06u as=3.2e+12p ps=2.24e+07u w=1e+06u l=500000u
X18 a_10180_990# P2 X VDDA sky130_fd_pr__pfet_g5v0d10v5 ad=4e+11p pd=2.8e+06u as=1.6e+12p ps=1.12e+07u w=1e+06u l=500000u
X19 a_3700_50# N1 a_3610_50# VSSA sky130_fd_pr__nfet_g5v0d10v5 ad=4e+11p pd=2.8e+06u as=4e+11p ps=2.8e+06u w=1e+06u l=500000u
X20 a_3430_1690# N1 a_3340_1690# VSSA sky130_fd_pr__nfet_g5v0d10v5 ad=4e+11p pd=2.8e+06u as=4e+11p ps=2.8e+06u w=1e+06u l=500000u
X21 a_1900_1690# N1 a_1810_1690# VSSA sky130_fd_pr__nfet_g5v0d10v5 ad=4e+11p pd=2.8e+06u as=4e+11p ps=2.8e+06u w=1e+06u l=500000u
X22 a_3880_990# P2 P1 VDDA sky130_fd_pr__pfet_g5v0d10v5 ad=4e+11p pd=2.8e+06u as=8e+11p ps=5.6e+06u w=1e+06u l=500000u
X23 a_4150_990# P2 a_4060_990# VDDA sky130_fd_pr__pfet_g5v0d10v5 ad=4e+11p pd=2.8e+06u as=4e+11p ps=2.8e+06u w=1e+06u l=500000u
X24 a_7840_1690# X a_7750_1690# VSSA sky130_fd_pr__nfet_g5v0d10v5 ad=4e+11p pd=2.8e+06u as=4e+11p ps=2.8e+06u w=1e+06u l=500000u
X25 a_5950_50# Y a_5860_50# VSSA sky130_fd_pr__nfet_g5v0d10v5 ad=0p pd=0u as=4e+11p ps=2.8e+06u w=1e+06u l=500000u
X26 a_8020_750# P2 a_7930_750# VDDA sky130_fd_pr__pfet_g5v0d10v5 ad=4e+11p pd=2.8e+06u as=4e+11p ps=2.8e+06u w=1e+06u l=500000u
X27 a_5680_750# P2 P0 VDDA sky130_fd_pr__pfet_g5v0d10v5 ad=4e+11p pd=2.8e+06u as=8e+11p ps=5.6e+06u w=1e+06u l=500000u
X28 a_6490_990# P2 a_6400_990# VDDA sky130_fd_pr__pfet_g5v0d10v5 ad=4e+11p pd=2.8e+06u as=4e+11p ps=2.8e+06u w=1e+06u l=500000u
X29 a_8830_990# P1 a_8740_990# VDDA sky130_fd_pr__pfet_g5v0d10v5 ad=4e+11p pd=2.8e+06u as=4e+11p ps=2.8e+06u w=1e+06u l=500000u
X30 VSSA N1 a_4420_1690# VSSA sky130_fd_pr__nfet_g5v0d10v5 ad=9.6e+12p pd=6.72e+07u as=4e+11p ps=2.8e+06u w=1e+06u l=500000u
X31 a_1360_50# X a_1270_50# VSSA sky130_fd_pr__nfet_g5v0d10v5 ad=4e+11p pd=2.8e+06u as=4e+11p ps=2.8e+06u w=1e+06u l=500000u
X32 a_8290_750# P2 a_8200_750# VDDA sky130_fd_pr__pfet_g5v0d10v5 ad=4e+11p pd=2.8e+06u as=4e+11p ps=2.8e+06u w=1e+06u l=500000u
X33 a_9100_990# P1 VDDA VDDA sky130_fd_pr__pfet_g5v0d10v5 ad=4e+11p pd=2.8e+06u as=0p ps=0u w=1e+06u l=500000u
X34 a_2980_1690# N1 a_2890_1690# VSSA sky130_fd_pr__nfet_g5v0d10v5 ad=4e+11p pd=2.8e+06u as=4e+11p ps=2.8e+06u w=1e+06u l=500000u
X35 a_2980_50# X Z VSSA sky130_fd_pr__nfet_g5v0d10v5 ad=4e+11p pd=2.8e+06u as=0p ps=0u w=1e+06u l=500000u
X36 a_1180_1690# N2 a_1090_1690# VSSA sky130_fd_pr__nfet_g5v0d10v5 ad=4e+11p pd=2.8e+06u as=4e+11p ps=2.8e+06u w=1e+06u l=500000u
X37 a_10990_990# a_10670_975# a_10670_975# VDDA sky130_fd_pr__pfet_g5v0d10v5 ad=4e+11p pd=2.8e+06u as=4e+11p ps=2.8e+06u w=1e+06u l=500000u
X38 a_100_750# a_n310_700# a_10_750# VDDA sky130_fd_pr__pfet_g5v0d10v5 ad=4e+11p pd=2.8e+06u as=4e+11p ps=2.8e+06u w=1e+06u l=500000u
X39 a_10450_750# P2 a_10360_750# VDDA sky130_fd_pr__pfet_g5v0d10v5 ad=4e+11p pd=2.8e+06u as=4e+11p ps=2.8e+06u w=1e+06u l=500000u
X40 a_7210_50# N1 a_7120_50# VSSA sky130_fd_pr__nfet_g5v0d10v5 ad=4e+11p pd=2.8e+06u as=4e+11p ps=2.8e+06u w=1e+06u l=500000u
X41 a_910_50# X a_820_50# VSSA sky130_fd_pr__nfet_g5v0d10v5 ad=4e+11p pd=2.8e+06u as=4e+11p ps=2.8e+06u w=1e+06u l=500000u
X42 a_8920_1690# X a_8830_1690# VSSA sky130_fd_pr__nfet_g5v0d10v5 ad=4e+11p pd=2.8e+06u as=4e+11p ps=2.8e+06u w=1e+06u l=500000u
X43 P2 N1 a_8740_50# VSSA sky130_fd_pr__nfet_g5v0d10v5 ad=1.6e+12p pd=1.12e+07u as=4e+11p ps=2.8e+06u w=1e+06u l=500000u
X44 a_7120_1690# N1 a_7030_1690# VSSA sky130_fd_pr__nfet_g5v0d10v5 ad=4e+11p pd=2.8e+06u as=4e+11p ps=2.8e+06u w=1e+06u l=500000u
X45 VDDA P1 a_1540_990# VDDA sky130_fd_pr__pfet_g5v0d10v5 ad=0p pd=0u as=4e+11p ps=2.8e+06u w=1e+06u l=500000u
X46 a_5590_1690# Y a_5500_1690# VSSA sky130_fd_pr__nfet_g5v0d10v5 ad=4e+11p pd=2.8e+06u as=4e+11p ps=2.8e+06u w=1e+06u l=500000u
X47 a_4240_50# N1 N1 VSSA sky130_fd_pr__nfet_g5v0d10v5 ad=4e+11p pd=2.8e+06u as=1.6e+12p ps=1.12e+07u w=1e+06u l=500000u
X48 VDDA P1 a_1000_750# VDDA sky130_fd_pr__pfet_g5v0d10v5 ad=0p pd=0u as=4e+11p ps=2.8e+06u w=1e+06u l=500000u
X49 a_3430_750# P1 a_3340_750# VDDA sky130_fd_pr__pfet_g5v0d10v5 ad=4e+11p pd=2.8e+06u as=4e+11p ps=2.8e+06u w=1e+06u l=500000u
X50 a_4960_990# P2 a_4870_990# VDDA sky130_fd_pr__pfet_g5v0d10v5 ad=4e+11p pd=2.8e+06u as=4e+11p ps=2.8e+06u w=1e+06u l=500000u
X51 a_4240_990# P0 a_4150_990# VDDA sky130_fd_pr__pfet_g5v0d10v5 ad=4e+11p pd=2.8e+06u as=0p ps=0u w=1e+06u l=500000u
X52 a_2260_1690# N1 a_2170_1690# VSSA sky130_fd_pr__nfet_g5v0d10v5 ad=4e+11p pd=2.8e+06u as=4e+11p ps=2.8e+06u w=1e+06u l=500000u
X53 a_10810_50# a_10670_35# a_10720_50# VSSA sky130_fd_pr__nfet_g5v0d10v5 ad=4e+11p pd=2.8e+06u as=4e+11p ps=2.8e+06u w=1e+06u l=500000u
X54 a_6760_750# P2 a_6670_750# VDDA sky130_fd_pr__pfet_g5v0d10v5 ad=4e+11p pd=2.8e+06u as=4e+11p ps=2.8e+06u w=1e+06u l=500000u
X55 a_9460_50# N2 a_9370_50# VSSA sky130_fd_pr__nfet_g5v0d10v5 ad=4e+11p pd=2.8e+06u as=4e+11p ps=2.8e+06u w=1e+06u l=500000u
X56 a_9910_990# P1 a_9820_990# VDDA sky130_fd_pr__pfet_g5v0d10v5 ad=4e+11p pd=2.8e+06u as=4e+11p ps=2.8e+06u w=1e+06u l=500000u
X57 VDDA P1 a_7480_990# VDDA sky130_fd_pr__pfet_g5v0d10v5 ad=0p pd=0u as=4e+11p ps=2.8e+06u w=1e+06u l=500000u
X58 a_9370_750# P1 a_9280_750# VDDA sky130_fd_pr__pfet_g5v0d10v5 ad=4e+11p pd=2.8e+06u as=4e+11p ps=2.8e+06u w=1e+06u l=500000u
X59 a_n310_700# a_n310_700# a_n170_750# VDDA sky130_fd_pr__pfet_g5v0d10v5 ad=4e+11p pd=2.8e+06u as=4e+11p ps=2.8e+06u w=1e+06u l=500000u
X60 a_10000_1690# X a_9910_1690# VSSA sky130_fd_pr__nfet_g5v0d10v5 ad=4e+11p pd=2.8e+06u as=4e+11p ps=2.8e+06u w=1e+06u l=500000u
X61 a_820_750# P2 X VDDA sky130_fd_pr__pfet_g5v0d10v5 ad=4e+11p pd=2.8e+06u as=0p ps=0u w=1e+06u l=500000u
X62 a_8200_1690# Y a_8110_1690# VSSA sky130_fd_pr__nfet_g5v0d10v5 ad=4e+11p pd=2.8e+06u as=4e+11p ps=2.8e+06u w=1e+06u l=500000u
X63 a_6490_50# N1 a_6400_50# VSSA sky130_fd_pr__nfet_g5v0d10v5 ad=4e+11p pd=2.8e+06u as=4e+11p ps=2.8e+06u w=1e+06u l=500000u
X64 a_10540_750# P1 a_10450_750# VDDA sky130_fd_pr__pfet_g5v0d10v5 ad=4e+11p pd=2.8e+06u as=0p ps=0u w=1e+06u l=500000u
X65 N1 N1 a_6580_1690# VSSA sky130_fd_pr__nfet_g5v0d10v5 ad=0p pd=0u as=4e+11p ps=2.8e+06u w=1e+06u l=500000u
X66 VSSA N1 LO VSSA sky130_fd_pr__nfet_g5v0d10v5 ad=0p pd=0u as=8e+11p ps=5.6e+06u w=1e+06u l=500000u
X67 a_3520_50# N1 a_3430_50# VSSA sky130_fd_pr__nfet_g5v0d10v5 ad=4e+11p pd=2.8e+06u as=4e+11p ps=2.8e+06u w=1e+06u l=500000u
X68 a_1900_750# P1 VDDA VDDA sky130_fd_pr__pfet_g5v0d10v5 ad=0p pd=0u as=0p ps=0u w=1e+06u l=500000u
X69 a_2710_990# P2 a_2620_990# VDDA sky130_fd_pr__pfet_g5v0d10v5 ad=0p pd=0u as=4e+11p ps=2.8e+06u w=1e+06u l=500000u
X70 a_2170_750# P1 a_2080_750# VDDA sky130_fd_pr__pfet_g5v0d10v5 ad=0p pd=0u as=4e+11p ps=2.8e+06u w=1e+06u l=500000u
X71 a_10_750# a_n310_700# a_n310_700# VDDA sky130_fd_pr__pfet_g5v0d10v5 ad=0p pd=0u as=0p ps=0u w=1e+06u l=500000u
X72 a_4510_750# P2 a_4420_750# VDDA sky130_fd_pr__pfet_g5v0d10v5 ad=0p pd=0u as=4e+11p ps=2.8e+06u w=1e+06u l=500000u
X73 a_9280_1690# X a_9190_1690# VSSA sky130_fd_pr__nfet_g5v0d10v5 ad=4e+11p pd=2.8e+06u as=4e+11p ps=2.8e+06u w=1e+06u l=500000u
X74 a_5320_990# P2 P0 VDDA sky130_fd_pr__pfet_g5v0d10v5 ad=0p pd=0u as=0p ps=0u w=1e+06u l=500000u
X75 a_7750_1690# X a_7660_1690# VSSA sky130_fd_pr__nfet_g5v0d10v5 ad=0p pd=0u as=4e+11p ps=2.8e+06u w=1e+06u l=500000u
X76 N1 LO P1 VSSA sky130_fd_pr__nfet_g5v0d10v5 ad=0p pd=0u as=1.6e+12p ps=1.12e+07u w=1e+06u l=500000u
X77 a_7120_750# P2 P1 VDDA sky130_fd_pr__pfet_g5v0d10v5 ad=0p pd=0u as=0p ps=0u w=1e+06u l=500000u
X78 a_8650_990# P2 a_8560_990# VDDA sky130_fd_pr__pfet_g5v0d10v5 ad=4e+11p pd=2.8e+06u as=4e+11p ps=2.8e+06u w=1e+06u l=500000u
X79 a_5770_50# Y a_5680_50# VSSA sky130_fd_pr__nfet_g5v0d10v5 ad=4e+11p pd=2.8e+06u as=4e+11p ps=2.8e+06u w=1e+06u l=500000u
X80 a_370_990# P1 a_280_990# VDDA sky130_fd_pr__pfet_g5v0d10v5 ad=0p pd=0u as=4e+11p ps=2.8e+06u w=1e+06u l=500000u
X81 a_1180_50# X X VSSA sky130_fd_pr__nfet_g5v0d10v5 ad=4e+11p pd=2.8e+06u as=8e+11p ps=5.6e+06u w=1e+06u l=500000u
X82 X P2 a_10000_990# VDDA sky130_fd_pr__pfet_g5v0d10v5 ad=0p pd=0u as=4e+11p ps=2.8e+06u w=1e+06u l=500000u
X83 VSSA N2 a_1540_1690# VSSA sky130_fd_pr__nfet_g5v0d10v5 ad=0p pd=0u as=4e+11p ps=2.8e+06u w=1e+06u l=500000u
X84 a_2800_50# Y a_2710_50# VSSA sky130_fd_pr__nfet_g5v0d10v5 ad=4e+11p pd=2.8e+06u as=4e+11p ps=2.8e+06u w=1e+06u l=500000u
X85 Z X a_640_50# VSSA sky130_fd_pr__nfet_g5v0d10v5 ad=0p pd=0u as=4e+11p ps=2.8e+06u w=1e+06u l=500000u
X86 a_460_1690# N2 a_370_1690# VSSA sky130_fd_pr__nfet_g5v0d10v5 ad=4e+11p pd=2.8e+06u as=4e+11p ps=2.8e+06u w=1e+06u l=500000u
X87 a_2980_750# P1 a_2890_750# VDDA sky130_fd_pr__pfet_g5v0d10v5 ad=4e+11p pd=2.8e+06u as=4e+11p ps=2.8e+06u w=1e+06u l=500000u
X88 a_1450_990# P2 a_1360_990# VDDA sky130_fd_pr__pfet_g5v0d10v5 ad=4e+11p pd=2.8e+06u as=4e+11p ps=2.8e+06u w=1e+06u l=500000u
X89 P1 P2 a_3700_990# VDDA sky130_fd_pr__pfet_g5v0d10v5 ad=0p pd=0u as=4e+11p ps=2.8e+06u w=1e+06u l=500000u
X90 a_6040_1690# N1 VSSA VSSA sky130_fd_pr__nfet_g5v0d10v5 ad=4e+11p pd=2.8e+06u as=0p ps=0u w=1e+06u l=500000u
X91 VDDA P1 a_3160_750# VDDA sky130_fd_pr__pfet_g5v0d10v5 ad=0p pd=0u as=4e+11p ps=2.8e+06u w=1e+06u l=500000u
X92 a_4060_990# P2 a_3970_990# VDDA sky130_fd_pr__pfet_g5v0d10v5 ad=0p pd=0u as=4e+11p ps=2.8e+06u w=1e+06u l=500000u
X93 a_4240_1690# N1 a_4150_1690# VSSA sky130_fd_pr__nfet_g5v0d10v5 ad=4e+11p pd=2.8e+06u as=4e+11p ps=2.8e+06u w=1e+06u l=500000u
X94 a_7930_750# P2 a_7840_750# VDDA sky130_fd_pr__pfet_g5v0d10v5 ad=0p pd=0u as=4e+11p ps=2.8e+06u w=1e+06u l=500000u
X95 P0 P2 a_5500_750# VDDA sky130_fd_pr__pfet_g5v0d10v5 ad=0p pd=0u as=4e+11p ps=2.8e+06u w=1e+06u l=500000u
X96 a_6400_990# P2 a_6310_990# VDDA sky130_fd_pr__pfet_g5v0d10v5 ad=0p pd=0u as=4e+11p ps=2.8e+06u w=1e+06u l=500000u
X97 a_8740_990# P1 a_8650_990# VDDA sky130_fd_pr__pfet_g5v0d10v5 ad=0p pd=0u as=0p ps=0u w=1e+06u l=500000u
X98 P2 N1 a_2620_1690# VSSA sky130_fd_pr__nfet_g5v0d10v5 ad=0p pd=0u as=4e+11p ps=2.8e+06u w=1e+06u l=500000u
X99 a_8200_750# P2 a_8110_750# VDDA sky130_fd_pr__pfet_g5v0d10v5 ad=0p pd=0u as=4e+11p ps=2.8e+06u w=1e+06u l=500000u
X100 VSSA N2 a_10540_50# VSSA sky130_fd_pr__nfet_g5v0d10v5 ad=0p pd=0u as=4e+11p ps=2.8e+06u w=1e+06u l=500000u
X101 a_9280_50# N2 VSSA VSSA sky130_fd_pr__nfet_g5v0d10v5 ad=4e+11p pd=2.8e+06u as=0p ps=0u w=1e+06u l=500000u
X102 a_10670_975# a_10670_975# a_10810_990# VDDA sky130_fd_pr__pfet_g5v0d10v5 ad=0p pd=0u as=4e+11p ps=2.8e+06u w=1e+06u l=500000u
X103 a_10360_750# P2 N2 VDDA sky130_fd_pr__pfet_g5v0d10v5 ad=0p pd=0u as=1.6e+12p ps=1.12e+07u w=1e+06u l=500000u
X104 VDDA a_10670_975# a_11080_990# VDDA sky130_fd_pr__pfet_g5v0d10v5 ad=0p pd=0u as=4e+11p ps=2.8e+06u w=1e+06u l=500000u
X105 VSSA Y a_6220_50# VSSA sky130_fd_pr__nfet_g5v0d10v5 ad=0p pd=0u as=4e+11p ps=2.8e+06u w=1e+06u l=500000u
X106 a_5320_1690# Y P0 VSSA sky130_fd_pr__nfet_g5v0d10v5 ad=4e+11p pd=2.8e+06u as=8e+11p ps=5.6e+06u w=1e+06u l=500000u
X107 a_7930_50# N1 a_7840_50# VSSA sky130_fd_pr__nfet_g5v0d10v5 ad=4e+11p pd=2.8e+06u as=4e+11p ps=2.8e+06u w=1e+06u l=500000u
X108 P1 N1 a_3700_1690# VSSA sky130_fd_pr__nfet_g5v0d10v5 ad=0p pd=0u as=4e+11p ps=2.8e+06u w=1e+06u l=500000u
X109 a_1540_990# P1 a_1450_990# VDDA sky130_fd_pr__pfet_g5v0d10v5 ad=0p pd=0u as=0p ps=0u w=1e+06u l=500000u
X110 a_3340_50# N1 VSSA VSSA sky130_fd_pr__nfet_g5v0d10v5 ad=4e+11p pd=2.8e+06u as=0p ps=0u w=1e+06u l=500000u
X111 a_3340_750# P1 VDDA VDDA sky130_fd_pr__pfet_g5v0d10v5 ad=0p pd=0u as=0p ps=0u w=1e+06u l=500000u
X112 a_4870_990# P0 a_4780_990# VDDA sky130_fd_pr__pfet_g5v0d10v5 ad=0p pd=0u as=4e+11p ps=2.8e+06u w=1e+06u l=500000u
X113 a_6670_750# P0 a_6580_750# VDDA sky130_fd_pr__pfet_g5v0d10v5 ad=0p pd=0u as=4e+11p ps=2.8e+06u w=1e+06u l=500000u
X114 a_8560_50# N1 a_8470_50# VSSA sky130_fd_pr__nfet_g5v0d10v5 ad=4e+11p pd=2.8e+06u as=4e+11p ps=2.8e+06u w=1e+06u l=500000u
X115 a_9010_750# P2 a_8920_750# VDDA sky130_fd_pr__pfet_g5v0d10v5 ad=4e+11p pd=2.8e+06u as=4e+11p ps=2.8e+06u w=1e+06u l=500000u
X116 a_9820_990# P1 VDDA VDDA sky130_fd_pr__pfet_g5v0d10v5 ad=0p pd=0u as=0p ps=0u w=1e+06u l=500000u
X117 a_7480_990# P1 a_7390_990# VDDA sky130_fd_pr__pfet_g5v0d10v5 ad=0p pd=0u as=4e+11p ps=2.8e+06u w=1e+06u l=500000u
X118 X X a_9640_1690# VSSA sky130_fd_pr__nfet_g5v0d10v5 ad=0p pd=0u as=4e+11p ps=2.8e+06u w=1e+06u l=500000u
X119 a_9280_750# P1 VDDA VDDA sky130_fd_pr__pfet_g5v0d10v5 ad=0p pd=0u as=0p ps=0u w=1e+06u l=500000u
X120 a_6400_1690# N1 a_6310_1690# VSSA sky130_fd_pr__nfet_g5v0d10v5 ad=4e+11p pd=2.8e+06u as=4e+11p ps=2.8e+06u w=1e+06u l=500000u
X121 X P2 a_640_750# VDDA sky130_fd_pr__pfet_g5v0d10v5 ad=0p pd=0u as=4e+11p ps=2.8e+06u w=1e+06u l=500000u
X122 a_4870_1690# Y a_4780_1690# VSSA sky130_fd_pr__nfet_g5v0d10v5 ad=4e+11p pd=2.8e+06u as=4e+11p ps=2.8e+06u w=1e+06u l=500000u
X123 P0 Y a_5500_50# VSSA sky130_fd_pr__nfet_g5v0d10v5 ad=0p pd=0u as=4e+11p ps=2.8e+06u w=1e+06u l=500000u
X124 VSSA N1 a_2980_1690# VSSA sky130_fd_pr__nfet_g5v0d10v5 ad=0p pd=0u as=0p ps=0u w=1e+06u l=500000u
X125 a_2620_50# Y Y VSSA sky130_fd_pr__nfet_g5v0d10v5 ad=4e+11p pd=2.8e+06u as=8e+11p ps=5.6e+06u w=1e+06u l=500000u
X126 VDDA P1 a_1720_750# VDDA sky130_fd_pr__pfet_g5v0d10v5 ad=0p pd=0u as=4e+11p ps=2.8e+06u w=1e+06u l=500000u
X127 a_n260_1690# a_n310_1640# VSSA VSSA sky130_fd_pr__nfet_g5v0d10v5 ad=4e+11p pd=2.8e+06u as=0p ps=0u w=1e+06u l=500000u
X128 a_2620_990# P2 a_2530_990# VDDA sky130_fd_pr__pfet_g5v0d10v5 ad=0p pd=0u as=4e+11p ps=2.8e+06u w=1e+06u l=500000u
X129 a_2080_750# P1 a_1990_750# VDDA sky130_fd_pr__pfet_g5v0d10v5 ad=0p pd=0u as=0p ps=0u w=1e+06u l=500000u
X130 a_7480_1690# N1 a_7390_1690# VSSA sky130_fd_pr__nfet_g5v0d10v5 ad=4e+11p pd=2.8e+06u as=4e+11p ps=2.8e+06u w=1e+06u l=500000u
X131 a_4420_750# P2 a_4330_750# VDDA sky130_fd_pr__pfet_g5v0d10v5 ad=0p pd=0u as=4e+11p ps=2.8e+06u w=1e+06u l=500000u
X132 N2 N2 a_820_1690# VSSA sky130_fd_pr__nfet_g5v0d10v5 ad=8e+11p pd=5.6e+06u as=4e+11p ps=2.8e+06u w=1e+06u l=500000u
X133 VDDA P0 a_5860_990# VDDA sky130_fd_pr__pfet_g5v0d10v5 ad=0p pd=0u as=4e+11p ps=2.8e+06u w=1e+06u l=500000u
X134 P0 P2 a_5140_990# VDDA sky130_fd_pr__pfet_g5v0d10v5 ad=0p pd=0u as=4e+11p ps=2.8e+06u w=1e+06u l=500000u
X135 VSSA Y a_5860_1690# VSSA sky130_fd_pr__nfet_g5v0d10v5 ad=0p pd=0u as=4e+11p ps=2.8e+06u w=1e+06u l=500000u
X136 a_4150_1690# N1 a_4060_1690# VSSA sky130_fd_pr__nfet_g5v0d10v5 ad=0p pd=0u as=4e+11p ps=2.8e+06u w=1e+06u l=500000u
X137 VSSA X a_3160_50# VSSA sky130_fd_pr__nfet_g5v0d10v5 ad=0p pd=0u as=4e+11p ps=2.8e+06u w=1e+06u l=500000u
X138 VDDA P0 a_7660_750# VDDA sky130_fd_pr__pfet_g5v0d10v5 ad=0p pd=0u as=4e+11p ps=2.8e+06u w=1e+06u l=500000u
X139 a_8560_990# P2 a_8470_990# VDDA sky130_fd_pr__pfet_g5v0d10v5 ad=0p pd=0u as=4e+11p ps=2.8e+06u w=1e+06u l=500000u
X140 VSSA N1 a_4780_50# VSSA sky130_fd_pr__nfet_g5v0d10v5 ad=0p pd=0u as=4e+11p ps=2.8e+06u w=1e+06u l=500000u
X141 a_280_990# P1 VDDA VDDA sky130_fd_pr__pfet_g5v0d10v5 ad=0p pd=0u as=0p ps=0u w=1e+06u l=500000u
X142 a_9100_50# N1 a_9010_50# VSSA sky130_fd_pr__nfet_g5v0d10v5 ad=4e+11p pd=2.8e+06u as=4e+11p ps=2.8e+06u w=1e+06u l=500000u
X143 a_1900_50# X VSSA VSSA sky130_fd_pr__nfet_g5v0d10v5 ad=4e+11p pd=2.8e+06u as=0p ps=0u w=1e+06u l=500000u
X144 a_8560_1690# Y a_8470_1690# VSSA sky130_fd_pr__nfet_g5v0d10v5 ad=4e+11p pd=2.8e+06u as=4e+11p ps=2.8e+06u w=1e+06u l=500000u
X145 VSSA a_n310_1640# a_100_1690# VSSA sky130_fd_pr__nfet_g5v0d10v5 ad=0p pd=0u as=0p ps=0u w=1e+06u l=500000u
X146 a_10990_1690# a_10670_1640# a_10670_1640# VSSA sky130_fd_pr__nfet_g5v0d10v5 ad=4e+11p pd=2.8e+06u as=0p ps=0u w=1e+06u l=500000u
X147 a_6130_50# Y a_6040_50# VSSA sky130_fd_pr__nfet_g5v0d10v5 ad=4e+11p pd=2.8e+06u as=0p ps=0u w=1e+06u l=500000u
X148 a_11080_50# a_10670_35# a_10990_50# VSSA sky130_fd_pr__nfet_g5v0d10v5 ad=4e+11p pd=2.8e+06u as=0p ps=0u w=1e+06u l=500000u
X149 a_2890_750# P2 a_2800_750# VDDA sky130_fd_pr__pfet_g5v0d10v5 ad=0p pd=0u as=4e+11p ps=2.8e+06u w=1e+06u l=500000u
X150 a_1360_990# P2 N2 VDDA sky130_fd_pr__pfet_g5v0d10v5 ad=0p pd=0u as=0p ps=0u w=1e+06u l=500000u
X151 a_3700_990# P2 a_3610_990# VDDA sky130_fd_pr__pfet_g5v0d10v5 ad=0p pd=0u as=4e+11p ps=2.8e+06u w=1e+06u l=500000u
X152 a_2440_1690# N1 a_2350_1690# VSSA sky130_fd_pr__nfet_g5v0d10v5 ad=4e+11p pd=2.8e+06u as=4e+11p ps=2.8e+06u w=1e+06u l=500000u
X153 a_6040_990# P1 VDDA VDDA sky130_fd_pr__pfet_g5v0d10v5 ad=4e+11p pd=2.8e+06u as=0p ps=0u w=1e+06u l=500000u
X154 a_3160_750# P1 a_3070_750# VDDA sky130_fd_pr__pfet_g5v0d10v5 ad=0p pd=0u as=4e+11p ps=2.8e+06u w=1e+06u l=500000u
X155 a_7840_750# P2 VDDA VDDA sky130_fd_pr__pfet_g5v0d10v5 ad=0p pd=0u as=0p ps=0u w=1e+06u l=500000u
X156 a_5500_750# P2 a_5410_750# VDDA sky130_fd_pr__pfet_g5v0d10v5 ad=0p pd=0u as=4e+11p ps=2.8e+06u w=1e+06u l=500000u
X157 a_6310_990# P1 a_6220_990# VDDA sky130_fd_pr__pfet_g5v0d10v5 ad=0p pd=0u as=4e+11p ps=2.8e+06u w=1e+06u l=500000u
X158 a_8110_750# P2 a_8020_750# VDDA sky130_fd_pr__pfet_g5v0d10v5 ad=0p pd=0u as=0p ps=0u w=1e+06u l=500000u
X159 a_460_50# X VSSA VSSA sky130_fd_pr__nfet_g5v0d10v5 ad=4e+11p pd=2.8e+06u as=0p ps=0u w=1e+06u l=500000u
X160 a_8380_50# N1 a_8290_50# VSSA sky130_fd_pr__nfet_g5v0d10v5 ad=4e+11p pd=2.8e+06u as=4e+11p ps=2.8e+06u w=1e+06u l=500000u
X161 a_n260_50# a_n310_35# VSSA VSSA sky130_fd_pr__nfet_g5v0d10v5 ad=4e+11p pd=2.8e+06u as=0p ps=0u w=1e+06u l=500000u
X162 a_550_750# P1 a_460_750# VDDA sky130_fd_pr__pfet_g5v0d10v5 ad=4e+11p pd=2.8e+06u as=4e+11p ps=2.8e+06u w=1e+06u l=500000u
X163 a_10810_990# a_10670_975# a_10720_990# VDDA sky130_fd_pr__pfet_g5v0d10v5 ad=0p pd=0u as=4e+11p ps=2.8e+06u w=1e+06u l=500000u
X164 a_10000_50# N2 N2 VSSA sky130_fd_pr__nfet_g5v0d10v5 ad=4e+11p pd=2.8e+06u as=0p ps=0u w=1e+06u l=500000u
X165 a_10270_1690# X a_10180_1690# VSSA sky130_fd_pr__nfet_g5v0d10v5 ad=4e+11p pd=2.8e+06u as=0p ps=0u w=1e+06u l=500000u
X166 N2 P2 a_10180_750# VDDA sky130_fd_pr__pfet_g5v0d10v5 ad=0p pd=0u as=4e+11p ps=2.8e+06u w=1e+06u l=500000u
X167 a_11080_990# a_10670_975# a_10990_990# VDDA sky130_fd_pr__pfet_g5v0d10v5 ad=0p pd=0u as=0p ps=0u w=1e+06u l=500000u
X168 a_5410_50# Y a_5320_50# VSSA sky130_fd_pr__nfet_g5v0d10v5 ad=4e+11p pd=2.8e+06u as=4e+11p ps=2.8e+06u w=1e+06u l=500000u
X169 a_3520_1690# N1 a_3430_1690# VSSA sky130_fd_pr__nfet_g5v0d10v5 ad=4e+11p pd=2.8e+06u as=0p ps=0u w=1e+06u l=500000u
X170 P2 N1 a_1900_1690# VSSA sky130_fd_pr__nfet_g5v0d10v5 ad=0p pd=0u as=0p ps=0u w=1e+06u l=500000u
X171 P1 N1 a_6940_50# VSSA sky130_fd_pr__nfet_g5v0d10v5 ad=0p pd=0u as=4e+11p ps=2.8e+06u w=1e+06u l=500000u
X172 a_10360_50# N2 a_10270_50# VSSA sky130_fd_pr__nfet_g5v0d10v5 ad=4e+11p pd=2.8e+06u as=4e+11p ps=2.8e+06u w=1e+06u l=500000u
X173 a_2440_50# Y a_2350_50# VSSA sky130_fd_pr__nfet_g5v0d10v5 ad=4e+11p pd=2.8e+06u as=4e+11p ps=2.8e+06u w=1e+06u l=500000u
X174 N1 P2 a_3880_750# VDDA sky130_fd_pr__pfet_g5v0d10v5 ad=1.6e+12p pd=1.12e+07u as=4e+11p ps=2.8e+06u w=1e+06u l=500000u
X175 a_4780_990# P0 a_4690_990# VDDA sky130_fd_pr__pfet_g5v0d10v5 ad=0p pd=0u as=4e+11p ps=2.8e+06u w=1e+06u l=500000u
X176 Z X a_7840_1690# VSSA sky130_fd_pr__nfet_g5v0d10v5 ad=0p pd=0u as=0p ps=0u w=1e+06u l=500000u
X177 a_6580_750# P0 a_6490_750# VDDA sky130_fd_pr__pfet_g5v0d10v5 ad=0p pd=0u as=4e+11p ps=2.8e+06u w=1e+06u l=500000u
X178 a_5050_990# P2 a_4960_990# VDDA sky130_fd_pr__pfet_g5v0d10v5 ad=4e+11p pd=2.8e+06u as=0p ps=0u w=1e+06u l=500000u
X179 a_7660_50# N1 a_7570_50# VSSA sky130_fd_pr__nfet_g5v0d10v5 ad=4e+11p pd=2.8e+06u as=4e+11p ps=2.8e+06u w=1e+06u l=500000u
X180 a_8920_750# P2 a_8830_750# VDDA sky130_fd_pr__pfet_g5v0d10v5 ad=0p pd=0u as=4e+11p ps=2.8e+06u w=1e+06u l=500000u
X181 VDDA P1 a_9640_990# VDDA sky130_fd_pr__pfet_g5v0d10v5 ad=0p pd=0u as=4e+11p ps=2.8e+06u w=1e+06u l=500000u
X182 a_7390_990# P1 a_7300_990# VDDA sky130_fd_pr__pfet_g5v0d10v5 ad=0p pd=0u as=4e+11p ps=2.8e+06u w=1e+06u l=500000u
X183 VSSA N1 a_6040_1690# VSSA sky130_fd_pr__nfet_g5v0d10v5 ad=0p pd=0u as=0p ps=0u w=1e+06u l=500000u
X184 VDDA P2 a_9100_750# VDDA sky130_fd_pr__pfet_g5v0d10v5 ad=0p pd=0u as=4e+11p ps=2.8e+06u w=1e+06u l=500000u
X185 a_4600_1690# Y VSSA VSSA sky130_fd_pr__nfet_g5v0d10v5 ad=4e+11p pd=2.8e+06u as=0p ps=0u w=1e+06u l=500000u
X186 a_3070_50# X a_2980_50# VSSA sky130_fd_pr__nfet_g5v0d10v5 ad=4e+11p pd=2.8e+06u as=0p ps=0u w=1e+06u l=500000u
X187 a_640_750# P2 a_550_750# VDDA sky130_fd_pr__pfet_g5v0d10v5 ad=0p pd=0u as=0p ps=0u w=1e+06u l=500000u
X188 a_1270_1690# N2 a_1180_1690# VSSA sky130_fd_pr__nfet_g5v0d10v5 ad=4e+11p pd=2.8e+06u as=0p ps=0u w=1e+06u l=500000u
X189 VSSA N1 a_4600_50# VSSA sky130_fd_pr__nfet_g5v0d10v5 ad=0p pd=0u as=4e+11p ps=2.8e+06u w=1e+06u l=500000u
X190 a_1720_50# X a_1630_50# VSSA sky130_fd_pr__nfet_g5v0d10v5 ad=4e+11p pd=2.8e+06u as=4e+11p ps=2.8e+06u w=1e+06u l=500000u
X191 VSSA X a_8920_1690# VSSA sky130_fd_pr__nfet_g5v0d10v5 ad=0p pd=0u as=0p ps=0u w=1e+06u l=500000u
X192 a_7210_1690# N1 a_7120_1690# VSSA sky130_fd_pr__nfet_g5v0d10v5 ad=4e+11p pd=2.8e+06u as=0p ps=0u w=1e+06u l=500000u
X193 a_640_1690# N2 a_550_1690# VSSA sky130_fd_pr__nfet_g5v0d10v5 ad=4e+11p pd=2.8e+06u as=4e+11p ps=2.8e+06u w=1e+06u l=500000u
X194 a_1720_750# P1 a_1630_750# VDDA sky130_fd_pr__pfet_g5v0d10v5 ad=0p pd=0u as=4e+11p ps=2.8e+06u w=1e+06u l=500000u
X195 a_5680_1690# Y a_5590_1690# VSSA sky130_fd_pr__nfet_g5v0d10v5 ad=4e+11p pd=2.8e+06u as=0p ps=0u w=1e+06u l=500000u
X196 a_2530_990# P2 a_2440_990# VDDA sky130_fd_pr__pfet_g5v0d10v5 ad=0p pd=0u as=4e+11p ps=2.8e+06u w=1e+06u l=500000u
X197 a_4330_750# P2 a_4240_750# VDDA sky130_fd_pr__pfet_g5v0d10v5 ad=0p pd=0u as=4e+11p ps=2.8e+06u w=1e+06u l=500000u
X198 a_5860_990# P0 a_5770_990# VDDA sky130_fd_pr__pfet_g5v0d10v5 ad=0p pd=0u as=4e+11p ps=2.8e+06u w=1e+06u l=500000u
X199 a_5140_990# P2 a_5050_990# VDDA sky130_fd_pr__pfet_g5v0d10v5 ad=0p pd=0u as=0p ps=0u w=1e+06u l=500000u
X200 a_2350_1690# N1 a_2260_1690# VSSA sky130_fd_pr__nfet_g5v0d10v5 ad=0p pd=0u as=0p ps=0u w=1e+06u l=500000u
X201 a_2350_50# Y a_2260_50# VSSA sky130_fd_pr__nfet_g5v0d10v5 ad=0p pd=0u as=4e+11p ps=2.8e+06u w=1e+06u l=500000u
X202 a_7660_750# P0 a_7570_750# VDDA sky130_fd_pr__pfet_g5v0d10v5 ad=0p pd=0u as=4e+11p ps=2.8e+06u w=1e+06u l=500000u
X203 a_10000_750# P1 VDDA VDDA sky130_fd_pr__pfet_g5v0d10v5 ad=4e+11p pd=2.8e+06u as=0p ps=0u w=1e+06u l=500000u
X204 a_8470_990# P2 a_8380_990# VDDA sky130_fd_pr__pfet_g5v0d10v5 ad=0p pd=0u as=4e+11p ps=2.8e+06u w=1e+06u l=500000u
X205 N1 N1 a_3880_50# VSSA sky130_fd_pr__nfet_g5v0d10v5 ad=0p pd=0u as=4e+11p ps=2.8e+06u w=1e+06u l=500000u
X206 VDDA a_n310_975# a_100_990# VDDA sky130_fd_pr__pfet_g5v0d10v5 ad=0p pd=0u as=4e+11p ps=2.8e+06u w=1e+06u l=500000u
X207 LO N1 VSSA VSSA sky130_fd_pr__nfet_g5v0d10v5 ad=0p pd=0u as=0p ps=0u w=1e+06u l=500000u
X208 Y Y a_8200_1690# VSSA sky130_fd_pr__nfet_g5v0d10v5 ad=0p pd=0u as=0p ps=0u w=1e+06u l=500000u
X209 a_8200_50# N1 P2 VSSA sky130_fd_pr__nfet_g5v0d10v5 ad=4e+11p pd=2.8e+06u as=0p ps=0u w=1e+06u l=500000u
X210 P1 LO N1 VSSA sky130_fd_pr__nfet_g5v0d10v5 ad=0p pd=0u as=0p ps=0u w=1e+06u l=500000u
X211 a_9820_50# N2 a_9730_50# VSSA sky130_fd_pr__nfet_g5v0d10v5 ad=4e+11p pd=2.8e+06u as=4e+11p ps=2.8e+06u w=1e+06u l=500000u
X212 a_n310_35# a_n310_35# a_n170_50# VSSA sky130_fd_pr__nfet_g5v0d10v5 ad=4e+11p pd=2.8e+06u as=4e+11p ps=2.8e+06u w=1e+06u l=500000u
X213 a_10720_1690# a_10670_1640# VSSA VSSA sky130_fd_pr__nfet_g5v0d10v5 ad=4e+11p pd=2.8e+06u as=0p ps=0u w=1e+06u l=500000u
X214 a_5230_50# Y a_5140_50# VSSA sky130_fd_pr__nfet_g5v0d10v5 ad=4e+11p pd=2.8e+06u as=4e+11p ps=2.8e+06u w=1e+06u l=500000u
X215 a_10180_50# N2 a_10090_50# VSSA sky130_fd_pr__nfet_g5v0d10v5 ad=4e+11p pd=2.8e+06u as=4e+11p ps=2.8e+06u w=1e+06u l=500000u
X216 a_2800_750# P2 a_2710_750# VDDA sky130_fd_pr__pfet_g5v0d10v5 ad=0p pd=0u as=4e+11p ps=2.8e+06u w=1e+06u l=500000u
X217 N2 P2 a_1180_990# VDDA sky130_fd_pr__pfet_g5v0d10v5 ad=0p pd=0u as=4e+11p ps=2.8e+06u w=1e+06u l=500000u
X218 a_3610_990# P2 a_3520_990# VDDA sky130_fd_pr__pfet_g5v0d10v5 ad=0p pd=0u as=4e+11p ps=2.8e+06u w=1e+06u l=500000u
X219 a_3070_750# P1 a_2980_750# VDDA sky130_fd_pr__pfet_g5v0d10v5 ad=0p pd=0u as=0p ps=0u w=1e+06u l=500000u
X220 Z X a_9280_1690# VSSA sky130_fd_pr__nfet_g5v0d10v5 ad=0p pd=0u as=0p ps=0u w=1e+06u l=500000u
X221 a_5410_750# P2 a_5320_750# VDDA sky130_fd_pr__pfet_g5v0d10v5 ad=0p pd=0u as=4e+11p ps=2.8e+06u w=1e+06u l=500000u
X222 a_6220_990# P1 a_6130_990# VDDA sky130_fd_pr__pfet_g5v0d10v5 ad=0p pd=0u as=4e+11p ps=2.8e+06u w=1e+06u l=500000u
X223 a_9550_990# P2 a_9460_990# VDDA sky130_fd_pr__pfet_g5v0d10v5 ad=4e+11p pd=2.8e+06u as=4e+11p ps=2.8e+06u w=1e+06u l=500000u
X224 a_n260_990# a_n310_975# VDDA VDDA sky130_fd_pr__pfet_g5v0d10v5 ad=4e+11p pd=2.8e+06u as=0p ps=0u w=1e+06u l=500000u
X225 a_1000_990# P1 VDDA VDDA sky130_fd_pr__pfet_g5v0d10v5 ad=4e+11p pd=2.8e+06u as=0p ps=0u w=1e+06u l=500000u
X226 a_7480_50# N1 a_7390_50# VSSA sky130_fd_pr__nfet_g5v0d10v5 ad=4e+11p pd=2.8e+06u as=4e+11p ps=2.8e+06u w=1e+06u l=500000u
X227 a_460_750# P1 VDDA VDDA sky130_fd_pr__pfet_g5v0d10v5 ad=0p pd=0u as=0p ps=0u w=1e+06u l=500000u
X228 a_10720_990# a_10670_975# VDDA VDDA sky130_fd_pr__pfet_g5v0d10v5 ad=0p pd=0u as=0p ps=0u w=1e+06u l=500000u
X229 a_10180_750# P2 a_10090_750# VDDA sky130_fd_pr__pfet_g5v0d10v5 ad=0p pd=0u as=4e+11p ps=2.8e+06u w=1e+06u l=500000u
X230 a_1720_1690# N1 VSSA VSSA sky130_fd_pr__nfet_g5v0d10v5 ad=4e+11p pd=2.8e+06u as=0p ps=0u w=1e+06u l=500000u
X231 a_4510_50# N1 a_4420_50# VSSA sky130_fd_pr__nfet_g5v0d10v5 ad=4e+11p pd=2.8e+06u as=4e+11p ps=2.8e+06u w=1e+06u l=500000u
X232 a_1540_50# X Z VSSA sky130_fd_pr__nfet_g5v0d10v5 ad=4e+11p pd=2.8e+06u as=0p ps=0u w=1e+06u l=500000u
X233 P2 P2 a_2260_990# VDDA sky130_fd_pr__pfet_g5v0d10v5 ad=8e+11p pd=5.6e+06u as=4e+11p ps=2.8e+06u w=1e+06u l=500000u
X234 a_550_1690# N2 a_460_1690# VSSA sky130_fd_pr__nfet_g5v0d10v5 ad=0p pd=0u as=0p ps=0u w=1e+06u l=500000u
X235 a_3880_750# P2 a_3790_750# VDDA sky130_fd_pr__pfet_g5v0d10v5 ad=0p pd=0u as=4e+11p ps=2.8e+06u w=1e+06u l=500000u
X236 a_4690_990# P0 a_4600_990# VDDA sky130_fd_pr__pfet_g5v0d10v5 ad=0p pd=0u as=4e+11p ps=2.8e+06u w=1e+06u l=500000u
X237 a_11080_1690# a_10670_1640# a_10990_1690# VSSA sky130_fd_pr__nfet_g5v0d10v5 ad=4e+11p pd=2.8e+06u as=0p ps=0u w=1e+06u l=500000u
X238 a_7030_990# P2 a_6940_990# VDDA sky130_fd_pr__pfet_g5v0d10v5 ad=4e+11p pd=2.8e+06u as=4e+11p ps=2.8e+06u w=1e+06u l=500000u
X239 N1 N1 a_4060_750# VDDA sky130_fd_pr__pfet_g5v0d10v5 ad=0p pd=0u as=4e+11p ps=2.8e+06u w=1e+06u l=500000u
X240 a_4330_1690# N1 a_4240_1690# VSSA sky130_fd_pr__nfet_g5v0d10v5 ad=4e+11p pd=2.8e+06u as=0p ps=0u w=1e+06u l=500000u
X241 a_6490_750# P0 a_6400_750# VDDA sky130_fd_pr__pfet_g5v0d10v5 ad=0p pd=0u as=4e+11p ps=2.8e+06u w=1e+06u l=500000u
X242 a_6760_50# N1 a_6670_50# VSSA sky130_fd_pr__nfet_g5v0d10v5 ad=4e+11p pd=2.8e+06u as=0p ps=0u w=1e+06u l=500000u
X243 a_8830_750# P2 a_8740_750# VDDA sky130_fd_pr__pfet_g5v0d10v5 ad=0p pd=0u as=4e+11p ps=2.8e+06u w=1e+06u l=500000u
X244 a_9640_990# P1 a_9550_990# VDDA sky130_fd_pr__pfet_g5v0d10v5 ad=0p pd=0u as=0p ps=0u w=1e+06u l=500000u
X245 a_7300_990# P1 a_7210_990# VDDA sky130_fd_pr__pfet_g5v0d10v5 ad=0p pd=0u as=4e+11p ps=2.8e+06u w=1e+06u l=500000u
X246 a_2800_1690# N1 P2 VSSA sky130_fd_pr__nfet_g5v0d10v5 ad=4e+11p pd=2.8e+06u as=0p ps=0u w=1e+06u l=500000u
X247 a_9100_750# P2 a_9010_750# VDDA sky130_fd_pr__pfet_g5v0d10v5 ad=0p pd=0u as=0p ps=0u w=1e+06u l=500000u
X248 Z X a_2080_50# VSSA sky130_fd_pr__nfet_g5v0d10v5 ad=0p pd=0u as=0p ps=0u w=1e+06u l=500000u
X249 a_3790_50# N1 a_3700_50# VSSA sky130_fd_pr__nfet_g5v0d10v5 ad=4e+11p pd=2.8e+06u as=0p ps=0u w=1e+06u l=500000u
X250 a_10990_750# a_10670_700# a_10670_700# VDDA sky130_fd_pr__pfet_g5v0d10v5 ad=4e+11p pd=2.8e+06u as=4e+11p ps=2.8e+06u w=1e+06u l=500000u