* NGSPICE file created from bias.ext - technology: sky130A

.subckt bias VDDA VSSA P1 P2 N2 N1
X0 a_3800_100# X VSSA VSSA sky130_fd_pr__nfet_g5v0d10v5 ad=4e+11p pd=2.8e+06u as=9.6e+12p ps=6.72e+07u w=1e+06u l=500000u
X1 a_18560_1980# P2 a_18380_1980# VDDA sky130_fd_pr__pfet_g5v0d10v5 ad=4e+11p pd=2.8e+06u as=4e+11p ps=2.8e+06u w=1e+06u l=500000u
X2 Y Y a_16400_3380# VSSA sky130_fd_pr__nfet_g5v0d10v5 ad=8e+11p pd=5.6e+06u as=4e+11p ps=2.8e+06u w=1e+06u l=500000u
X3 X P2 a_2720_1500# VDDA sky130_fd_pr__pfet_g5v0d10v5 ad=1.6e+12p pd=1.12e+07u as=4e+11p ps=2.8e+06u w=1e+06u l=500000u
X4 a_1100_1500# P1 a_920_1500# VDDA sky130_fd_pr__pfet_g5v0d10v5 ad=4e+11p pd=2.8e+06u as=4e+11p ps=2.8e+06u w=1e+06u l=500000u
X5 a_n620_1400# a_n620_1400# a_n340_1500# VDDA sky130_fd_pr__pfet_g5v0d10v5 ad=4e+11p pd=2.8e+06u as=4e+11p ps=2.8e+06u w=1e+06u l=500000u
X6 N1 N1 a_13520_1980# VDDA sky130_fd_pr__pfet_g5v0d10v5 ad=1.6e+12p pd=1.12e+07u as=4e+11p ps=2.8e+06u w=1e+06u l=500000u
X7 a_11720_3380# Y a_11540_3380# VSSA sky130_fd_pr__nfet_g5v0d10v5 ad=4e+11p pd=2.8e+06u as=4e+11p ps=2.8e+06u w=1e+06u l=500000u
X8 a_18920_1500# P2 a_18740_1500# VDDA sky130_fd_pr__pfet_g5v0d10v5 ad=4e+11p pd=2.8e+06u as=4e+11p ps=2.8e+06u w=1e+06u l=500000u
X9 a_8480_1980# P0 a_8300_1980# VDDA sky130_fd_pr__pfet_g5v0d10v5 ad=4e+11p pd=2.8e+06u as=4e+11p ps=2.8e+06u w=1e+06u l=500000u
X10 a_17120_1500# P2 P2 VDDA sky130_fd_pr__pfet_g5v0d10v5 ad=4e+11p pd=2.8e+06u as=8e+11p ps=5.6e+06u w=1e+06u l=500000u
X11 a_3620_1980# P2 a_3440_1980# VDDA sky130_fd_pr__pfet_g5v0d10v5 ad=4e+11p pd=2.8e+06u as=4e+11p ps=2.8e+06u w=1e+06u l=500000u
X12 a_1640_3380# N2 a_1460_3380# VSSA sky130_fd_pr__nfet_g5v0d10v5 ad=4e+11p pd=2.8e+06u as=4e+11p ps=2.8e+06u w=1e+06u l=500000u
X13 a_8840_1500# P2 a_8660_1500# VDDA sky130_fd_pr__pfet_g5v0d10v5 ad=4e+11p pd=2.8e+06u as=4e+11p ps=2.8e+06u w=1e+06u l=500000u
X14 a_17660_3380# X a_17480_3380# VSSA sky130_fd_pr__nfet_g5v0d10v5 ad=4e+11p pd=2.8e+06u as=4e+11p ps=2.8e+06u w=1e+06u l=500000u
X15 a_13520_100# N1 a_13340_100# VSSA sky130_fd_pr__nfet_g5v0d10v5 ad=4e+11p pd=2.8e+06u as=4e+11p ps=2.8e+06u w=1e+06u l=500000u
X16 a_19640_1980# P1 VDDA VDDA sky130_fd_pr__pfet_g5v0d10v5 ad=4e+11p pd=2.8e+06u as=1.04e+13p ps=7.28e+07u w=1e+06u l=500000u
X17 a_15860_100# N1 a_15680_100# VSSA sky130_fd_pr__nfet_g5v0d10v5 ad=4e+11p pd=2.8e+06u as=4e+11p ps=2.8e+06u w=1e+06u l=500000u
X18 a_12800_3380# N1 a_12620_3380# VSSA sky130_fd_pr__nfet_g5v0d10v5 ad=4e+11p pd=2.8e+06u as=4e+11p ps=2.8e+06u w=1e+06u l=500000u
X19 a_20000_1500# P1 VDDA VDDA sky130_fd_pr__pfet_g5v0d10v5 ad=4e+11p pd=2.8e+06u as=0p ps=0u w=1e+06u l=500000u
X20 P1 N1 a_7400_3380# VSSA sky130_fd_pr__nfet_g5v0d10v5 ad=1.6e+12p pd=1.12e+07u as=4e+11p ps=2.8e+06u w=1e+06u l=500000u
X21 a_9560_1980# P0 a_9380_1980# VDDA sky130_fd_pr__pfet_g5v0d10v5 ad=4e+11p pd=2.8e+06u as=4e+11p ps=2.8e+06u w=1e+06u l=500000u
X22 a_18200_1500# P2 a_18020_1500# VDDA sky130_fd_pr__pfet_g5v0d10v5 ad=4e+11p pd=2.8e+06u as=4e+11p ps=2.8e+06u w=1e+06u l=500000u
X23 a_4160_100# X a_3980_100# VSSA sky130_fd_pr__nfet_g5v0d10v5 ad=4e+11p pd=2.8e+06u as=4e+11p ps=2.8e+06u w=1e+06u l=500000u
X24 a_2720_3380# N2 a_2540_3380# VSSA sky130_fd_pr__nfet_g5v0d10v5 ad=4e+11p pd=2.8e+06u as=4e+11p ps=2.8e+06u w=1e+06u l=500000u
X25 a_9920_1500# P0 VDDA VDDA sky130_fd_pr__pfet_g5v0d10v5 ad=4e+11p pd=2.8e+06u as=0p ps=0u w=1e+06u l=500000u
X26 P2 P2 a_4520_1980# VDDA sky130_fd_pr__pfet_g5v0d10v5 ad=0p pd=0u as=4e+11p ps=2.8e+06u w=1e+06u l=500000u
X27 a_13880_1500# P2 a_13700_1500# VDDA sky130_fd_pr__pfet_g5v0d10v5 ad=4e+11p pd=2.8e+06u as=4e+11p ps=2.8e+06u w=1e+06u l=500000u
X28 a_8120_1500# N1 N1 VDDA sky130_fd_pr__pfet_g5v0d10v5 ad=4e+11p pd=2.8e+06u as=0p ps=0u w=1e+06u l=500000u
X29 Z X a_18560_3380# VSSA sky130_fd_pr__nfet_g5v0d10v5 ad=3.2e+12p pd=2.24e+07u as=4e+11p ps=2.8e+06u w=1e+06u l=500000u
X30 a_8660_3380# N1 a_8480_3380# VSSA sky130_fd_pr__nfet_g5v0d10v5 ad=4e+11p pd=2.8e+06u as=4e+11p ps=2.8e+06u w=1e+06u l=500000u
X31 a_14600_100# N1 a_14420_100# VSSA sky130_fd_pr__nfet_g5v0d10v5 ad=4e+11p pd=2.8e+06u as=4e+11p ps=2.8e+06u w=1e+06u l=500000u
X32 a_16940_100# N1 a_16760_100# VSSA sky130_fd_pr__nfet_g5v0d10v5 ad=4e+11p pd=2.8e+06u as=4e+11p ps=2.8e+06u w=1e+06u l=500000u
X33 a_740_1980# P1 a_560_1980# VDDA sky130_fd_pr__pfet_g5v0d10v5 ad=4e+11p pd=2.8e+06u as=4e+11p ps=2.8e+06u w=1e+06u l=500000u
X34 a_3800_3380# N1 a_3620_3380# VSSA sky130_fd_pr__nfet_g5v0d10v5 ad=4e+11p pd=2.8e+06u as=4e+11p ps=2.8e+06u w=1e+06u l=500000u
X35 a_9200_1500# P1 a_9020_1500# VDDA sky130_fd_pr__pfet_g5v0d10v5 ad=4e+11p pd=2.8e+06u as=4e+11p ps=2.8e+06u w=1e+06u l=500000u
X36 a_20540_1980# P2 a_20360_1980# VDDA sky130_fd_pr__pfet_g5v0d10v5 ad=4e+11p pd=2.8e+06u as=4e+11p ps=2.8e+06u w=1e+06u l=500000u
X37 a_19820_3380# X a_19640_3380# VSSA sky130_fd_pr__nfet_g5v0d10v5 ad=4e+11p pd=2.8e+06u as=4e+11p ps=2.8e+06u w=1e+06u l=500000u
X38 a_14960_1500# P0 a_14780_1500# VDDA sky130_fd_pr__pfet_g5v0d10v5 ad=4e+11p pd=2.8e+06u as=4e+11p ps=2.8e+06u w=1e+06u l=500000u
X39 a_13160_1500# P0 a_12980_1500# VDDA sky130_fd_pr__pfet_g5v0d10v5 ad=4e+11p pd=2.8e+06u as=4e+11p ps=2.8e+06u w=1e+06u l=500000u
X40 a_5240_100# Y Y VSSA sky130_fd_pr__nfet_g5v0d10v5 ad=4e+11p pd=2.8e+06u as=0p ps=0u w=1e+06u l=500000u
X41 a_20900_1500# P2 a_20720_1500# VDDA sky130_fd_pr__pfet_g5v0d10v5 ad=4e+11p pd=2.8e+06u as=4e+11p ps=2.8e+06u w=1e+06u l=500000u
X42 a_7580_100# N1 a_7400_100# VSSA sky130_fd_pr__nfet_g5v0d10v5 ad=4e+11p pd=2.8e+06u as=4e+11p ps=2.8e+06u w=1e+06u l=500000u
X43 a_9740_3380# Y a_9560_3380# VSSA sky130_fd_pr__nfet_g5v0d10v5 ad=4e+11p pd=2.8e+06u as=4e+11p ps=2.8e+06u w=1e+06u l=500000u
X44 a_4880_1500# P2 a_4700_1500# VDDA sky130_fd_pr__pfet_g5v0d10v5 ad=4e+11p pd=2.8e+06u as=4e+11p ps=2.8e+06u w=1e+06u l=500000u
X45 a_15680_1980# P1 a_15500_1980# VDDA sky130_fd_pr__pfet_g5v0d10v5 ad=4e+11p pd=2.8e+06u as=4e+11p ps=2.8e+06u w=1e+06u l=500000u
X46 a_12080_100# Y a_11900_100# VSSA sky130_fd_pr__nfet_g5v0d10v5 ad=4e+11p pd=2.8e+06u as=4e+11p ps=2.8e+06u w=1e+06u l=500000u
X47 a_21620_1980# a_21340_1950# a_21440_1980# VDDA sky130_fd_pr__pfet_g5v0d10v5 ad=4e+11p pd=2.8e+06u as=4e+11p ps=2.8e+06u w=1e+06u l=500000u
X48 a_10820_1980# P2 a_10640_1980# VDDA sky130_fd_pr__pfet_g5v0d10v5 ad=4e+11p pd=2.8e+06u as=4e+11p ps=2.8e+06u w=1e+06u l=500000u
X49 a_16040_1500# P2 a_15860_1500# VDDA sky130_fd_pr__pfet_g5v0d10v5 ad=4e+11p pd=2.8e+06u as=4e+11p ps=2.8e+06u w=1e+06u l=500000u
X50 a_19100_3380# X a_18920_3380# VSSA sky130_fd_pr__nfet_g5v0d10v5 ad=4e+11p pd=2.8e+06u as=4e+11p ps=2.8e+06u w=1e+06u l=500000u
X51 a_14240_1500# P2 P1 VDDA sky130_fd_pr__pfet_g5v0d10v5 ad=4e+11p pd=2.8e+06u as=8e+11p ps=5.6e+06u w=1e+06u l=500000u
X52 a_18020_100# N1 a_17840_100# VSSA sky130_fd_pr__nfet_g5v0d10v5 ad=4e+11p pd=2.8e+06u as=4e+11p ps=2.8e+06u w=1e+06u l=500000u
X53 a_5960_1500# P1 a_5780_1500# VDDA sky130_fd_pr__pfet_g5v0d10v5 ad=4e+11p pd=2.8e+06u as=4e+11p ps=2.8e+06u w=1e+06u l=500000u
X54 a_4160_1500# P1 a_3980_1500# VDDA sky130_fd_pr__pfet_g5v0d10v5 ad=4e+11p pd=2.8e+06u as=4e+11p ps=2.8e+06u w=1e+06u l=500000u
X55 a_14780_3380# N1 a_14600_3380# VSSA sky130_fd_pr__nfet_g5v0d10v5 ad=4e+11p pd=2.8e+06u as=4e+11p ps=2.8e+06u w=1e+06u l=500000u
X56 a_16760_1980# P2 Y VDDA sky130_fd_pr__pfet_g5v0d10v5 ad=4e+11p pd=2.8e+06u as=8e+11p ps=5.6e+06u w=1e+06u l=500000u
X57 a_920_3380# N2 a_740_3380# VSSA sky130_fd_pr__nfet_g5v0d10v5 ad=4e+11p pd=2.8e+06u as=4e+11p ps=2.8e+06u w=1e+06u l=500000u
X58 a_20540_100# N2 a_20360_100# VSSA sky130_fd_pr__nfet_g5v0d10v5 ad=4e+11p pd=2.8e+06u as=4e+11p ps=2.8e+06u w=1e+06u l=500000u
X59 a_20720_3380# X a_20540_3380# VSSA sky130_fd_pr__nfet_g5v0d10v5 ad=4e+11p pd=2.8e+06u as=4e+11p ps=2.8e+06u w=1e+06u l=500000u
X60 a_6320_100# X a_6140_100# VSSA sky130_fd_pr__nfet_g5v0d10v5 ad=4e+11p pd=2.8e+06u as=4e+11p ps=2.8e+06u w=1e+06u l=500000u
X61 VDDA P0 a_11720_1980# VDDA sky130_fd_pr__pfet_g5v0d10v5 ad=0p pd=0u as=4e+11p ps=2.8e+06u w=1e+06u l=500000u
X62 a_8660_100# N1 a_8480_100# VSSA sky130_fd_pr__nfet_g5v0d10v5 ad=4e+11p pd=2.8e+06u as=4e+11p ps=2.8e+06u w=1e+06u l=500000u
X63 a_10100_1980# P2 a_9920_1980# VDDA sky130_fd_pr__pfet_g5v0d10v5 ad=4e+11p pd=2.8e+06u as=4e+11p ps=2.8e+06u w=1e+06u l=500000u
X64 a_6680_1980# P0 a_6500_1980# VDDA sky130_fd_pr__pfet_g5v0d10v5 ad=4e+11p pd=2.8e+06u as=4e+11p ps=2.8e+06u w=1e+06u l=500000u
X65 a_15320_1500# P0 a_15140_1500# VDDA sky130_fd_pr__pfet_g5v0d10v5 ad=4e+11p pd=2.8e+06u as=4e+11p ps=2.8e+06u w=1e+06u l=500000u
X66 VSSA a_n620_70# a_200_100# VSSA sky130_fd_pr__nfet_g5v0d10v5 ad=0p pd=0u as=4e+11p ps=2.8e+06u w=1e+06u l=500000u
X67 a_7040_1500# P1 a_6860_1500# VDDA sky130_fd_pr__pfet_g5v0d10v5 ad=4e+11p pd=2.8e+06u as=4e+11p ps=2.8e+06u w=1e+06u l=500000u
X68 VDDA P1 a_1640_1980# VDDA sky130_fd_pr__pfet_g5v0d10v5 ad=0p pd=0u as=4e+11p ps=2.8e+06u w=1e+06u l=500000u
X69 a_10820_100# Y a_10640_100# VSSA sky130_fd_pr__nfet_g5v0d10v5 ad=4e+11p pd=2.8e+06u as=4e+11p ps=2.8e+06u w=1e+06u l=500000u
X70 a_5240_1500# P2 Y VDDA sky130_fd_pr__pfet_g5v0d10v5 ad=4e+11p pd=2.8e+06u as=0p ps=0u w=1e+06u l=500000u
X71 a_17840_1980# P1 a_17660_1980# VDDA sky130_fd_pr__pfet_g5v0d10v5 ad=4e+11p pd=2.8e+06u as=4e+11p ps=2.8e+06u w=1e+06u l=500000u
X72 Z X a_15680_3380# VSSA sky130_fd_pr__nfet_g5v0d10v5 ad=0p pd=0u as=4e+11p ps=2.8e+06u w=1e+06u l=500000u
X73 a_200_3380# a_n620_3280# a_20_3380# VSSA sky130_fd_pr__nfet_g5v0d10v5 ad=4e+11p pd=2.8e+06u as=4e+11p ps=2.8e+06u w=1e+06u l=500000u
X74 a_21340_3280# a_21340_3280# a_21620_3380# VSSA sky130_fd_pr__nfet_g5v0d10v5 ad=4e+11p pd=2.8e+06u as=4e+11p ps=2.8e+06u w=1e+06u l=500000u
X75 a_11000_3380# Y a_10820_3380# VSSA sky130_fd_pr__nfet_g5v0d10v5 ad=4e+11p pd=2.8e+06u as=4e+11p ps=2.8e+06u w=1e+06u l=500000u
X76 VSSA N1 a_18200_100# VSSA sky130_fd_pr__nfet_g5v0d10v5 ad=0p pd=0u as=4e+11p ps=2.8e+06u w=1e+06u l=500000u
X77 a_7760_1980# P2 P1 VDDA sky130_fd_pr__pfet_g5v0d10v5 ad=4e+11p pd=2.8e+06u as=0p ps=0u w=1e+06u l=500000u
X78 a_5780_3380# N1 a_5600_3380# VSSA sky130_fd_pr__nfet_g5v0d10v5 ad=4e+11p pd=2.8e+06u as=4e+11p ps=2.8e+06u w=1e+06u l=500000u
X79 a_16400_1500# P2 a_16220_1500# VDDA sky130_fd_pr__pfet_g5v0d10v5 ad=4e+11p pd=2.8e+06u as=4e+11p ps=2.8e+06u w=1e+06u l=500000u
X80 Z X a_1280_100# VSSA sky130_fd_pr__nfet_g5v0d10v5 ad=0p pd=0u as=4e+11p ps=2.8e+06u w=1e+06u l=500000u
X81 a_21620_100# a_21340_70# a_21440_100# VSSA sky130_fd_pr__nfet_g5v0d10v5 ad=4e+11p pd=2.8e+06u as=4e+11p ps=2.8e+06u w=1e+06u l=500000u
X82 a_2900_1980# P2 a_2720_1980# VDDA sky130_fd_pr__pfet_g5v0d10v5 ad=4e+11p pd=2.8e+06u as=4e+11p ps=2.8e+06u w=1e+06u l=500000u
X83 a_6320_1500# P1 a_6140_1500# VDDA sky130_fd_pr__pfet_g5v0d10v5 ad=4e+11p pd=2.8e+06u as=4e+11p ps=2.8e+06u w=1e+06u l=500000u
X84 N2 P2 a_920_1980# VDDA sky130_fd_pr__pfet_g5v0d10v5 ad=1.6e+12p pd=1.12e+07u as=4e+11p ps=2.8e+06u w=1e+06u l=500000u
X85 a_16940_3380# Y a_16760_3380# VSSA sky130_fd_pr__nfet_g5v0d10v5 ad=4e+11p pd=2.8e+06u as=4e+11p ps=2.8e+06u w=1e+06u l=500000u
X86 a_7400_100# N1 a_7220_100# VSSA sky130_fd_pr__nfet_g5v0d10v5 ad=0p pd=0u as=4e+11p ps=2.8e+06u w=1e+06u l=500000u
X87 a_12080_1500# P0 a_11900_1500# VDDA sky130_fd_pr__pfet_g5v0d10v5 ad=4e+11p pd=2.8e+06u as=4e+11p ps=2.8e+06u w=1e+06u l=500000u
X88 a_18920_1980# P2 X VDDA sky130_fd_pr__pfet_g5v0d10v5 ad=4e+11p pd=2.8e+06u as=0p ps=0u w=1e+06u l=500000u
X89 a_n620_1950# a_n620_1950# a_n340_1980# VDDA sky130_fd_pr__pfet_g5v0d10v5 ad=4e+11p pd=2.8e+06u as=4e+11p ps=2.8e+06u w=1e+06u l=500000u
X90 VSSA N1 a_9560_100# VSSA sky130_fd_pr__nfet_g5v0d10v5 ad=0p pd=0u as=4e+11p ps=2.8e+06u w=1e+06u l=500000u
X91 a_10280_1500# P0 a_10100_1500# VDDA sky130_fd_pr__pfet_g5v0d10v5 ad=4e+11p pd=2.8e+06u as=4e+11p ps=2.8e+06u w=1e+06u l=500000u
X92 a_17120_1980# P2 a_16940_1980# VDDA sky130_fd_pr__pfet_g5v0d10v5 ad=4e+11p pd=2.8e+06u as=4e+11p ps=2.8e+06u w=1e+06u l=500000u
X93 VSSA N1 a_14960_3380# VSSA sky130_fd_pr__nfet_g5v0d10v5 ad=0p pd=0u as=4e+11p ps=2.8e+06u w=1e+06u l=500000u
X94 a_n520_1500# a_n620_1400# VDDA VDDA sky130_fd_pr__pfet_g5v0d10v5 ad=4e+11p pd=2.8e+06u as=0p ps=0u w=1e+06u l=500000u
X95 a_6860_3380# N1 a_6680_3380# VSSA sky130_fd_pr__nfet_g5v0d10v5 ad=4e+11p pd=2.8e+06u as=4e+11p ps=2.8e+06u w=1e+06u l=500000u
X96 a_8840_1980# P0 a_8660_1980# VDDA sky130_fd_pr__pfet_g5v0d10v5 ad=4e+11p pd=2.8e+06u as=4e+11p ps=2.8e+06u w=1e+06u l=500000u
X97 a_11900_100# Y a_11720_100# VSSA sky130_fd_pr__nfet_g5v0d10v5 ad=0p pd=0u as=4e+11p ps=2.8e+06u w=1e+06u l=500000u
X98 P0 Y a_11000_100# VSSA sky130_fd_pr__nfet_g5v0d10v5 ad=8e+11p pd=5.6e+06u as=4e+11p ps=2.8e+06u w=1e+06u l=500000u
X99 a_2000_3380# N2 N2 VSSA sky130_fd_pr__nfet_g5v0d10v5 ad=4e+11p pd=2.8e+06u as=8e+11p ps=5.6e+06u w=1e+06u l=500000u
X100 a_n620_70# a_n620_70# a_n340_100# VSSA sky130_fd_pr__nfet_g5v0d10v5 ad=4e+11p pd=2.8e+06u as=4e+11p ps=2.8e+06u w=1e+06u l=500000u
X101 a_7400_1500# P2 a_7220_1500# VDDA sky130_fd_pr__pfet_g5v0d10v5 ad=4e+11p pd=2.8e+06u as=4e+11p ps=2.8e+06u w=1e+06u l=500000u
X102 a_20000_1980# P2 a_19820_1980# VDDA sky130_fd_pr__pfet_g5v0d10v5 ad=4e+11p pd=2.8e+06u as=4e+11p ps=2.8e+06u w=1e+06u l=500000u
X103 VSSA X a_17840_3380# VSSA sky130_fd_pr__nfet_g5v0d10v5 ad=0p pd=0u as=4e+11p ps=2.8e+06u w=1e+06u l=500000u
X104 a_17120_100# N1 a_16940_100# VSSA sky130_fd_pr__nfet_g5v0d10v5 ad=4e+11p pd=2.8e+06u as=0p ps=0u w=1e+06u l=500000u
X105 a_22160_1500# a_21340_1400# a_21980_1500# VDDA sky130_fd_pr__pfet_g5v0d10v5 ad=4e+11p pd=2.8e+06u as=4e+11p ps=2.8e+06u w=1e+06u l=500000u
X106 a_16220_3380# Y a_16040_3380# VSSA sky130_fd_pr__nfet_g5v0d10v5 ad=4e+11p pd=2.8e+06u as=4e+11p ps=2.8e+06u w=1e+06u l=500000u
X107 a_19460_100# N2 a_19280_100# VSSA sky130_fd_pr__nfet_g5v0d10v5 ad=4e+11p pd=2.8e+06u as=4e+11p ps=2.8e+06u w=1e+06u l=500000u
X108 a_11360_1500# P2 P0 VDDA sky130_fd_pr__pfet_g5v0d10v5 ad=4e+11p pd=2.8e+06u as=8e+11p ps=5.6e+06u w=1e+06u l=500000u
X109 a_18200_1980# P1 VDDA VDDA sky130_fd_pr__pfet_g5v0d10v5 ad=4e+11p pd=2.8e+06u as=0p ps=0u w=1e+06u l=500000u
X110 a_2540_100# X a_2360_100# VSSA sky130_fd_pr__nfet_g5v0d10v5 ad=4e+11p pd=2.8e+06u as=4e+11p ps=2.8e+06u w=1e+06u l=500000u
X111 a_4880_100# Y a_4700_100# VSSA sky130_fd_pr__nfet_g5v0d10v5 ad=4e+11p pd=2.8e+06u as=4e+11p ps=2.8e+06u w=1e+06u l=500000u
X112 a_7940_3380# N1 a_7760_3380# VSSA sky130_fd_pr__nfet_g5v0d10v5 ad=4e+11p pd=2.8e+06u as=4e+11p ps=2.8e+06u w=1e+06u l=500000u
X113 a_3080_1500# P2 X VDDA sky130_fd_pr__pfet_g5v0d10v5 ad=4e+11p pd=2.8e+06u as=0p ps=0u w=1e+06u l=500000u
X114 a_9920_1980# P2 a_9740_1980# VDDA sky130_fd_pr__pfet_g5v0d10v5 ad=0p pd=0u as=4e+11p ps=2.8e+06u w=1e+06u l=500000u
X115 VSSA N1 a_5960_3380# VSSA sky130_fd_pr__nfet_g5v0d10v5 ad=0p pd=0u as=4e+11p ps=2.8e+06u w=1e+06u l=500000u
X116 a_1280_1500# P2 a_1100_1500# VDDA sky130_fd_pr__pfet_g5v0d10v5 ad=4e+11p pd=2.8e+06u as=0p ps=0u w=1e+06u l=500000u
X117 a_8120_1980# P2 a_7940_1980# VDDA sky130_fd_pr__pfet_g5v0d10v5 ad=4e+11p pd=2.8e+06u as=4e+11p ps=2.8e+06u w=1e+06u l=500000u
X118 a_13880_1980# P2 N1 VDDA sky130_fd_pr__pfet_g5v0d10v5 ad=4e+11p pd=2.8e+06u as=0p ps=0u w=1e+06u l=500000u
X119 a_n340_3380# a_n620_3280# a_n520_3380# VSSA sky130_fd_pr__nfet_g5v0d10v5 ad=4e+11p pd=2.8e+06u as=4e+11p ps=2.8e+06u w=1e+06u l=500000u
X120 a_200_100# a_n620_70# a_20_100# VSSA sky130_fd_pr__nfet_g5v0d10v5 ad=0p pd=0u as=4e+11p ps=2.8e+06u w=1e+06u l=500000u
X121 Z Y a_17120_3380# VSSA sky130_fd_pr__nfet_g5v0d10v5 ad=0p pd=0u as=4e+11p ps=2.8e+06u w=1e+06u l=500000u
X122 a_12440_1500# P0 a_12260_1500# VDDA sky130_fd_pr__pfet_g5v0d10v5 ad=4e+11p pd=2.8e+06u as=4e+11p ps=2.8e+06u w=1e+06u l=500000u
X123 a_12260_100# Y a_12080_100# VSSA sky130_fd_pr__nfet_g5v0d10v5 ad=4e+11p pd=2.8e+06u as=0p ps=0u w=1e+06u l=500000u
X124 VSSA N1 a_8840_3380# VSSA sky130_fd_pr__nfet_g5v0d10v5 ad=0p pd=0u as=4e+11p ps=2.8e+06u w=1e+06u l=500000u
X125 a_7220_3380# N1 a_7040_3380# VSSA sky130_fd_pr__nfet_g5v0d10v5 ad=4e+11p pd=2.8e+06u as=4e+11p ps=2.8e+06u w=1e+06u l=500000u
X126 a_2360_1500# P1 VDDA VDDA sky130_fd_pr__pfet_g5v0d10v5 ad=4e+11p pd=2.8e+06u as=0p ps=0u w=1e+06u l=500000u
X127 a_14960_1980# P1 a_14780_1980# VDDA sky130_fd_pr__pfet_g5v0d10v5 ad=4e+11p pd=2.8e+06u as=4e+11p ps=2.8e+06u w=1e+06u l=500000u
X128 a_9200_1980# P0 VDDA VDDA sky130_fd_pr__pfet_g5v0d10v5 ad=4e+11p pd=2.8e+06u as=0p ps=0u w=1e+06u l=500000u
X129 a_12980_3380# N1 a_12800_3380# VSSA sky130_fd_pr__nfet_g5v0d10v5 ad=4e+11p pd=2.8e+06u as=0p ps=0u w=1e+06u l=500000u
X130 a_18200_100# N1 a_18020_100# VSSA sky130_fd_pr__nfet_g5v0d10v5 ad=0p pd=0u as=0p ps=0u w=1e+06u l=500000u
X131 a_11180_3380# Y a_11000_3380# VSSA sky130_fd_pr__nfet_g5v0d10v5 ad=4e+11p pd=2.8e+06u as=0p ps=0u w=1e+06u l=500000u
X132 VDDA P2 a_18200_1500# VDDA sky130_fd_pr__pfet_g5v0d10v5 ad=0p pd=0u as=0p ps=0u w=1e+06u l=500000u
X133 a_13160_1980# P2 a_12980_1980# VDDA sky130_fd_pr__pfet_g5v0d10v5 ad=4e+11p pd=2.8e+06u as=4e+11p ps=2.8e+06u w=1e+06u l=500000u
X134 a_5960_100# X Z VSSA sky130_fd_pr__nfet_g5v0d10v5 ad=4e+11p pd=2.8e+06u as=0p ps=0u w=1e+06u l=500000u
X135 VSSA X a_3440_100# VSSA sky130_fd_pr__nfet_g5v0d10v5 ad=0p pd=0u as=4e+11p ps=2.8e+06u w=1e+06u l=500000u
X136 VDDA P1 a_20720_1980# VDDA sky130_fd_pr__pfet_g5v0d10v5 ad=0p pd=0u as=4e+11p ps=2.8e+06u w=1e+06u l=500000u
X137 a_4880_1980# P2 P2 VDDA sky130_fd_pr__pfet_g5v0d10v5 ad=4e+11p pd=2.8e+06u as=0p ps=0u w=1e+06u l=500000u
X138 a_13520_1500# P2 a_13340_1500# VDDA sky130_fd_pr__pfet_g5v0d10v5 ad=4e+11p pd=2.8e+06u as=4e+11p ps=2.8e+06u w=1e+06u l=500000u
X139 a_3440_1500# P1 a_3260_1500# VDDA sky130_fd_pr__pfet_g5v0d10v5 ad=4e+11p pd=2.8e+06u as=4e+11p ps=2.8e+06u w=1e+06u l=500000u
X140 a_8300_3380# N1 a_8120_3380# VSSA sky130_fd_pr__nfet_g5v0d10v5 ad=4e+11p pd=2.8e+06u as=4e+11p ps=2.8e+06u w=1e+06u l=500000u
X141 a_14060_3380# N1 a_13880_3380# VSSA sky130_fd_pr__nfet_g5v0d10v5 ad=4e+11p pd=2.8e+06u as=4e+11p ps=2.8e+06u w=1e+06u l=500000u
X142 a_16040_1980# P2 a_15860_1980# VDDA sky130_fd_pr__pfet_g5v0d10v5 ad=4e+11p pd=2.8e+06u as=4e+11p ps=2.8e+06u w=1e+06u l=500000u
X143 a_14240_1980# P2 a_14060_1980# VDDA sky130_fd_pr__pfet_g5v0d10v5 ad=4e+11p pd=2.8e+06u as=4e+11p ps=2.8e+06u w=1e+06u l=500000u
X144 VSSA N1 a_12080_3380# VSSA sky130_fd_pr__nfet_g5v0d10v5 ad=0p pd=0u as=4e+11p ps=2.8e+06u w=1e+06u l=500000u
X145 a_19460_1500# P2 a_19280_1500# VDDA sky130_fd_pr__pfet_g5v0d10v5 ad=4e+11p pd=2.8e+06u as=4e+11p ps=2.8e+06u w=1e+06u l=500000u
X146 a_13340_100# N1 a_13160_100# VSSA sky130_fd_pr__nfet_g5v0d10v5 ad=0p pd=0u as=4e+11p ps=2.8e+06u w=1e+06u l=500000u
X147 a_15680_100# N1 VSSA VSSA sky130_fd_pr__nfet_g5v0d10v5 ad=0p pd=0u as=0p ps=0u w=1e+06u l=500000u
X148 P2 N1 a_3800_3380# VSSA sky130_fd_pr__nfet_g5v0d10v5 ad=1.6e+12p pd=1.12e+07u as=0p ps=0u w=1e+06u l=500000u
X149 a_5960_1980# P2 a_5780_1980# VDDA sky130_fd_pr__pfet_g5v0d10v5 ad=4e+11p pd=2.8e+06u as=4e+11p ps=2.8e+06u w=1e+06u l=500000u
X150 a_14600_1500# P2 a_14420_1500# VDDA sky130_fd_pr__pfet_g5v0d10v5 ad=4e+11p pd=2.8e+06u as=4e+11p ps=2.8e+06u w=1e+06u l=500000u
X151 a_4160_1980# P2 a_3980_1980# VDDA sky130_fd_pr__pfet_g5v0d10v5 ad=4e+11p pd=2.8e+06u as=4e+11p ps=2.8e+06u w=1e+06u l=500000u
X152 a_2180_3380# N2 a_2000_3380# VSSA sky130_fd_pr__nfet_g5v0d10v5 ad=4e+11p pd=2.8e+06u as=0p ps=0u w=1e+06u l=500000u
X153 a_9380_1500# P1 a_9200_1500# VDDA sky130_fd_pr__pfet_g5v0d10v5 ad=4e+11p pd=2.8e+06u as=0p ps=0u w=1e+06u l=500000u
X154 a_4700_100# Y a_4520_100# VSSA sky130_fd_pr__nfet_g5v0d10v5 ad=0p pd=0u as=4e+11p ps=2.8e+06u w=1e+06u l=500000u
X155 a_7040_100# N1 a_6860_100# VSSA sky130_fd_pr__nfet_g5v0d10v5 ad=4e+11p pd=2.8e+06u as=4e+11p ps=2.8e+06u w=1e+06u l=500000u
X156 a_21080_1500# P1 a_20900_1500# VDDA sky130_fd_pr__pfet_g5v0d10v5 ad=4e+11p pd=2.8e+06u as=0p ps=0u w=1e+06u l=500000u
X157 a_4520_1500# P2 a_4340_1500# VDDA sky130_fd_pr__pfet_g5v0d10v5 ad=4e+11p pd=2.8e+06u as=4e+11p ps=2.8e+06u w=1e+06u l=500000u
X158 N1 N1 a_13160_3380# VSSA sky130_fd_pr__nfet_g5v0d10v5 ad=1.6e+12p pd=1.12e+07u as=4e+11p ps=2.8e+06u w=1e+06u l=500000u
X159 a_15320_1980# P1 VDDA VDDA sky130_fd_pr__pfet_g5v0d10v5 ad=4e+11p pd=2.8e+06u as=0p ps=0u w=1e+06u l=500000u
X160 a_5060_3380# N1 a_4880_3380# VSSA sky130_fd_pr__nfet_g5v0d10v5 ad=4e+11p pd=2.8e+06u as=4e+11p ps=2.8e+06u w=1e+06u l=500000u
X161 a_7040_1980# P2 a_6860_1980# VDDA sky130_fd_pr__pfet_g5v0d10v5 ad=4e+11p pd=2.8e+06u as=4e+11p ps=2.8e+06u w=1e+06u l=500000u
X162 VSSA N2 a_3080_3380# VSSA sky130_fd_pr__nfet_g5v0d10v5 ad=0p pd=0u as=4e+11p ps=2.8e+06u w=1e+06u l=500000u
X163 a_5240_1980# P2 a_5060_1980# VDDA sky130_fd_pr__pfet_g5v0d10v5 ad=4e+11p pd=2.8e+06u as=4e+11p ps=2.8e+06u w=1e+06u l=500000u
X164 a_19280_3380# X a_19100_3380# VSSA sky130_fd_pr__nfet_g5v0d10v5 ad=4e+11p pd=2.8e+06u as=0p ps=0u w=1e+06u l=500000u
X165 a_14420_100# N1 a_14240_100# VSSA sky130_fd_pr__nfet_g5v0d10v5 ad=0p pd=0u as=4e+11p ps=2.8e+06u w=1e+06u l=500000u
X166 a_5600_1500# P2 a_5420_1500# VDDA sky130_fd_pr__pfet_g5v0d10v5 ad=4e+11p pd=2.8e+06u as=4e+11p ps=2.8e+06u w=1e+06u l=500000u
X167 a_560_1500# LO VDDA VDDA sky130_fd_pr__pfet_g5v0d10v5 ad=4e+11p pd=2.8e+06u as=0p ps=0u w=1e+06u l=500000u
X168 a_16760_100# N1 a_16580_100# VSSA sky130_fd_pr__nfet_g5v0d10v5 ad=0p pd=0u as=4e+11p ps=2.8e+06u w=1e+06u l=500000u
X169 a_20_3380# a_n620_3280# a_n620_3280# VSSA sky130_fd_pr__nfet_g5v0d10v5 ad=0p pd=0u as=4e+11p ps=2.8e+06u w=1e+06u l=500000u
X170 a_20360_1500# P2 a_20180_1500# VDDA sky130_fd_pr__pfet_g5v0d10v5 ad=4e+11p pd=2.8e+06u as=4e+11p ps=2.8e+06u w=1e+06u l=500000u
X171 a_14420_3380# N1 a_14240_3380# VSSA sky130_fd_pr__nfet_g5v0d10v5 ad=4e+11p pd=2.8e+06u as=4e+11p ps=2.8e+06u w=1e+06u l=500000u
X172 a_16400_1980# P2 a_16220_1980# VDDA sky130_fd_pr__pfet_g5v0d10v5 ad=4e+11p pd=2.8e+06u as=4e+11p ps=2.8e+06u w=1e+06u l=500000u
X173 a_4340_3380# N1 a_4160_3380# VSSA sky130_fd_pr__nfet_g5v0d10v5 ad=4e+11p pd=2.8e+06u as=4e+11p ps=2.8e+06u w=1e+06u l=500000u
X174 a_12080_1980# P1 VDDA VDDA sky130_fd_pr__pfet_g5v0d10v5 ad=4e+11p pd=2.8e+06u as=0p ps=0u w=1e+06u l=500000u
X175 a_6320_1980# P0 VDDA VDDA sky130_fd_pr__pfet_g5v0d10v5 ad=4e+11p pd=2.8e+06u as=0p ps=0u w=1e+06u l=500000u
X176 a_10280_1980# P2 a_10100_1980# VDDA sky130_fd_pr__pfet_g5v0d10v5 ad=4e+11p pd=2.8e+06u as=0p ps=0u w=1e+06u l=500000u
X177 a_n520_1980# a_n620_1950# VDDA VDDA sky130_fd_pr__pfet_g5v0d10v5 ad=4e+11p pd=2.8e+06u as=0p ps=0u w=1e+06u l=500000u
X178 a_21440_1500# a_21340_1400# VDDA VDDA sky130_fd_pr__pfet_g5v0d10v5 ad=4e+11p pd=2.8e+06u as=0p ps=0u w=1e+06u l=500000u
X179 a_10640_1500# P2 a_10460_1500# VDDA sky130_fd_pr__pfet_g5v0d10v5 ad=4e+11p pd=2.8e+06u as=4e+11p ps=2.8e+06u w=1e+06u l=500000u
X180 a_15500_3380# X a_15320_3380# VSSA sky130_fd_pr__nfet_g5v0d10v5 ad=4e+11p pd=2.8e+06u as=4e+11p ps=2.8e+06u w=1e+06u l=500000u
X181 a_20_100# a_n620_70# a_n620_70# VSSA sky130_fd_pr__nfet_g5v0d10v5 ad=0p pd=0u as=0p ps=0u w=1e+06u l=500000u
X182 VSSA a_n620_3280# a_200_3380# VSSA sky130_fd_pr__nfet_g5v0d10v5 ad=0p pd=0u as=0p ps=0u w=1e+06u l=500000u
X183 VSSA N1 a_15320_100# VSSA sky130_fd_pr__nfet_g5v0d10v5 ad=0p pd=0u as=4e+11p ps=2.8e+06u w=1e+06u l=500000u
X184 a_7400_1980# P2 a_7220_1980# VDDA sky130_fd_pr__pfet_g5v0d10v5 ad=4e+11p pd=2.8e+06u as=4e+11p ps=2.8e+06u w=1e+06u l=500000u
X185 P2 N1 a_5240_3380# VSSA sky130_fd_pr__nfet_g5v0d10v5 ad=0p pd=0u as=4e+11p ps=2.8e+06u w=1e+06u l=500000u
X186 a_21980_3380# a_21340_3280# a_21340_3280# VSSA sky130_fd_pr__nfet_g5v0d10v5 ad=4e+11p pd=2.8e+06u as=0p ps=0u w=1e+06u l=500000u
X187 a_17840_100# N1 P2 VSSA sky130_fd_pr__nfet_g5v0d10v5 ad=0p pd=0u as=0p ps=0u w=1e+06u l=500000u
X188 Z X a_20000_3380# VSSA sky130_fd_pr__nfet_g5v0d10v5 ad=0p pd=0u as=4e+11p ps=2.8e+06u w=1e+06u l=500000u
X189 a_22160_1980# a_21340_1950# a_21980_1980# VDDA sky130_fd_pr__pfet_g5v0d10v5 ad=4e+11p pd=2.8e+06u as=4e+11p ps=2.8e+06u w=1e+06u l=500000u
X190 a_11360_1980# P0 a_11180_1980# VDDA sky130_fd_pr__pfet_g5v0d10v5 ad=4e+11p pd=2.8e+06u as=4e+11p ps=2.8e+06u w=1e+06u l=500000u
X191 a_16580_1500# P2 a_16400_1500# VDDA sky130_fd_pr__pfet_g5v0d10v5 ad=4e+11p pd=2.8e+06u as=0p ps=0u w=1e+06u l=500000u
X192 a_20360_100# N2 a_20180_100# VSSA sky130_fd_pr__nfet_g5v0d10v5 ad=0p pd=0u as=4e+11p ps=2.8e+06u w=1e+06u l=500000u
X193 a_3080_1980# P1 a_2900_1980# VDDA sky130_fd_pr__pfet_g5v0d10v5 ad=4e+11p pd=2.8e+06u as=0p ps=0u w=1e+06u l=500000u
X194 a_11720_1500# P2 a_11540_1500# VDDA sky130_fd_pr__pfet_g5v0d10v5 ad=4e+11p pd=2.8e+06u as=4e+11p ps=2.8e+06u w=1e+06u l=500000u
X195 a_1280_1980# P2 N2 VDDA sky130_fd_pr__pfet_g5v0d10v5 ad=4e+11p pd=2.8e+06u as=0p ps=0u w=1e+06u l=500000u
X196 a_6140_100# X a_5960_100# VSSA sky130_fd_pr__nfet_g5v0d10v5 ad=0p pd=0u as=0p ps=0u w=1e+06u l=500000u
X197 a_8480_100# N1 N1 VSSA sky130_fd_pr__nfet_g5v0d10v5 ad=0p pd=0u as=0p ps=0u w=1e+06u l=500000u
X198 a_6500_3380# N1 a_6320_3380# VSSA sky130_fd_pr__nfet_g5v0d10v5 ad=4e+11p pd=2.8e+06u as=4e+11p ps=2.8e+06u w=1e+06u l=500000u
X199 a_920_100# X VSSA VSSA sky130_fd_pr__nfet_g5v0d10v5 ad=4e+11p pd=2.8e+06u as=0p ps=0u w=1e+06u l=500000u
X200 a_1640_1500# P2 X VDDA sky130_fd_pr__pfet_g5v0d10v5 ad=4e+11p pd=2.8e+06u as=0p ps=0u w=1e+06u l=500000u
X201 P0 Y a_10280_3380# VSSA sky130_fd_pr__nfet_g5v0d10v5 ad=0p pd=0u as=4e+11p ps=2.8e+06u w=1e+06u l=500000u
X202 VSSA N1 LO VSSA sky130_fd_pr__nfet_g5v0d10v5 ad=0p pd=0u as=8e+11p ps=5.6e+06u w=1e+06u l=500000u
X203 a_10640_100# Y a_10460_100# VSSA sky130_fd_pr__nfet_g5v0d10v5 ad=0p pd=0u as=4e+11p ps=2.8e+06u w=1e+06u l=500000u
X204 a_17660_1500# P2 a_17480_1500# VDDA sky130_fd_pr__pfet_g5v0d10v5 ad=4e+11p pd=2.8e+06u as=4e+11p ps=2.8e+06u w=1e+06u l=500000u
X205 a_12440_1980# P1 a_12260_1980# VDDA sky130_fd_pr__pfet_g5v0d10v5 ad=4e+11p pd=2.8e+06u as=4e+11p ps=2.8e+06u w=1e+06u l=500000u
X206 a_12980_100# N1 a_12800_100# VSSA sky130_fd_pr__nfet_g5v0d10v5 ad=4e+11p pd=2.8e+06u as=4e+11p ps=2.8e+06u w=1e+06u l=500000u
X207 a_12800_1500# P0 VDDA VDDA sky130_fd_pr__pfet_g5v0d10v5 ad=4e+11p pd=2.8e+06u as=0p ps=0u w=1e+06u l=500000u
X208 a_7580_1500# P2 a_7400_1500# VDDA sky130_fd_pr__pfet_g5v0d10v5 ad=4e+11p pd=2.8e+06u as=0p ps=0u w=1e+06u l=500000u
X209 a_2360_1980# P2 a_2180_1980# VDDA sky130_fd_pr__pfet_g5v0d10v5 ad=4e+11p pd=2.8e+06u as=4e+11p ps=2.8e+06u w=1e+06u l=500000u
X210 a_18920_100# N2 a_18740_100# VSSA sky130_fd_pr__nfet_g5v0d10v5 ad=4e+11p pd=2.8e+06u as=4e+11p ps=2.8e+06u w=1e+06u l=500000u
X211 a_18380_1980# P1 a_18200_1980# VDDA sky130_fd_pr__pfet_g5v0d10v5 ad=0p pd=0u as=0p ps=0u w=1e+06u l=500000u
X212 a_2000_100# X a_1820_100# VSSA sky130_fd_pr__nfet_g5v0d10v5 ad=4e+11p pd=2.8e+06u as=4e+11p ps=2.8e+06u w=1e+06u l=500000u
X213 a_1280_100# X a_1100_100# VSSA sky130_fd_pr__nfet_g5v0d10v5 ad=0p pd=0u as=4e+11p ps=2.8e+06u w=1e+06u l=500000u
X214 a_2720_1500# P2 a_2540_1500# VDDA sky130_fd_pr__pfet_g5v0d10v5 ad=0p pd=0u as=4e+11p ps=2.8e+06u w=1e+06u l=500000u
X215 VSSA a_21340_3280# a_22160_3380# VSSA sky130_fd_pr__nfet_g5v0d10v5 ad=0p pd=0u as=4e+11p ps=2.8e+06u w=1e+06u l=500000u
X216 a_13520_1980# N1 N1 VDDA sky130_fd_pr__pfet_g5v0d10v5 ad=0p pd=0u as=0p ps=0u w=1e+06u l=500000u
X217 a_11540_3380# Y a_11360_3380# VSSA sky130_fd_pr__nfet_g5v0d10v5 ad=0p pd=0u as=4e+11p ps=2.8e+06u w=1e+06u l=500000u
X218 a_21440_100# a_21340_70# VSSA VSSA sky130_fd_pr__nfet_g5v0d10v5 ad=0p pd=0u as=0p ps=0u w=1e+06u l=500000u
X219 a_18740_1500# P1 a_18560_1500# VDDA sky130_fd_pr__pfet_g5v0d10v5 ad=0p pd=0u as=4e+11p ps=2.8e+06u w=1e+06u l=500000u
X220 a_7220_100# N1 a_7040_100# VSSA sky130_fd_pr__nfet_g5v0d10v5 ad=0p pd=0u as=0p ps=0u w=1e+06u l=500000u
X221 a_9560_100# N1 VSSA VSSA sky130_fd_pr__nfet_g5v0d10v5 ad=0p pd=0u as=0p ps=0u w=1e+06u l=500000u
X222 a_1460_3380# N2 a_1280_3380# VSSA sky130_fd_pr__nfet_g5v0d10v5 ad=0p pd=0u as=4e+11p ps=2.8e+06u w=1e+06u l=500000u
X223 a_8660_1500# P2 a_8480_1500# VDDA sky130_fd_pr__pfet_g5v0d10v5 ad=0p pd=0u as=4e+11p ps=2.8e+06u w=1e+06u l=500000u
X224 a_3440_1980# P2 VDDA VDDA sky130_fd_pr__pfet_g5v0d10v5 ad=0p pd=0u as=0p ps=0u w=1e+06u l=500000u
X225 a_17480_3380# X Z VSSA sky130_fd_pr__nfet_g5v0d10v5 ad=0p pd=0u as=0p ps=0u w=1e+06u l=500000u
X226 a_11720_100# Y a_11540_100# VSSA sky130_fd_pr__nfet_g5v0d10v5 ad=0p pd=0u as=4e+11p ps=2.8e+06u w=1e+06u l=500000u
X227 VDDA P1 a_19280_1980# VDDA sky130_fd_pr__pfet_g5v0d10v5 ad=0p pd=0u as=4e+11p ps=2.8e+06u w=1e+06u l=500000u
X228 P1 N1 a_13880_100# VSSA sky130_fd_pr__nfet_g5v0d10v5 ad=0p pd=0u as=4e+11p ps=2.8e+06u w=1e+06u l=500000u
X229 a_3800_1500# P1 VDDA VDDA sky130_fd_pr__pfet_g5v0d10v5 ad=4e+11p pd=2.8e+06u as=0p ps=0u w=1e+06u l=500000u
X230 VDDA P1 a_19640_1500# VDDA sky130_fd_pr__pfet_g5v0d10v5 ad=0p pd=0u as=4e+11p ps=2.8e+06u w=1e+06u l=500000u
X231 a_14600_1980# P1 a_14420_1980# VDDA sky130_fd_pr__pfet_g5v0d10v5 ad=4e+11p pd=2.8e+06u as=4e+11p ps=2.8e+06u w=1e+06u l=500000u
X232 a_12620_3380# N1 a_12440_3380# VSSA sky130_fd_pr__nfet_g5v0d10v5 ad=0p pd=0u as=4e+11p ps=2.8e+06u w=1e+06u l=500000u
X233 a_9380_1980# P0 a_9200_1980# VDDA sky130_fd_pr__pfet_g5v0d10v5 ad=0p pd=0u as=0p ps=0u w=1e+06u l=500000u
X234 a_19280_100# N2 a_19100_100# VSSA sky130_fd_pr__nfet_g5v0d10v5 ad=0p pd=0u as=4e+11p ps=2.8e+06u w=1e+06u l=500000u
X235 a_20000_100# N2 N2 VSSA sky130_fd_pr__nfet_g5v0d10v5 ad=4e+11p pd=2.8e+06u as=0p ps=0u w=1e+06u l=500000u
X236 a_2360_100# X X VSSA sky130_fd_pr__nfet_g5v0d10v5 ad=0p pd=0u as=8e+11p ps=5.6e+06u w=1e+06u l=500000u
X237 VDDA P1 a_9560_1500# VDDA sky130_fd_pr__pfet_g5v0d10v5 ad=0p pd=0u as=4e+11p ps=2.8e+06u w=1e+06u l=500000u
X238 a_21080_1980# LO VDDA VDDA sky130_fd_pr__pfet_g5v0d10v5 ad=4e+11p pd=2.8e+06u as=0p ps=0u w=1e+06u l=500000u
X239 a_4520_1980# P2 a_4340_1980# VDDA sky130_fd_pr__pfet_g5v0d10v5 ad=0p pd=0u as=4e+11p ps=2.8e+06u w=1e+06u l=500000u
X240 a_2540_3380# N2 a_2360_3380# VSSA sky130_fd_pr__nfet_g5v0d10v5 ad=0p pd=0u as=4e+11p ps=2.8e+06u w=1e+06u l=500000u
X241 a_18560_3380# X a_18380_3380# VSSA sky130_fd_pr__nfet_g5v0d10v5 ad=0p pd=0u as=4e+11p ps=2.8e+06u w=1e+06u l=500000u