* SPICE3 file created from ota.ext - technology: sky130A

.subckt ota VDDA VSSA P1 P2 N2 N1 INP INM OUT
X0 X INM YM VDDA sky130_fd_pr__pfet_g5v0d10v5 ad=2.08e+13p pd=1.456e+08u as=9.6e+12p ps=6.72e+07u w=1e+06u l=500000u
X1 a_n6795_50# N2 YM VSSA sky130_fd_pr__nfet_g5v0d10v5 ad=4e+11p pd=2.8e+06u as=3.2e+12p ps=2.24e+07u w=1e+06u l=500000u
X2 a_n7875_830# P2 X VDDA sky130_fd_pr__pfet_g5v0d10v5 ad=4e+11p pd=2.8e+06u as=0p ps=0u w=1e+06u l=500000u
X3 a_n3915_1065# P2 a_n4005_1065# VDDA sky130_fd_pr__pfet_g5v0d10v5 ad=4e+11p pd=2.8e+06u as=4e+11p ps=2.8e+06u w=1e+06u l=500000u
X4 YP INP X VDDA sky130_fd_pr__pfet_g5v0d10v5 ad=9.6e+12p pd=6.72e+07u as=0p ps=0u w=1e+06u l=500000u
X5 VSSA N1 a_n2295_50# VSSA sky130_fd_pr__nfet_g5v0d10v5 ad=5.6e+12p pd=3.92e+07u as=4e+11p ps=2.8e+06u w=1e+06u l=500000u
X6 a_n3825_50# N1 a_n3915_50# VSSA sky130_fd_pr__nfet_g5v0d10v5 ad=4e+11p pd=2.8e+06u as=4e+11p ps=2.8e+06u w=1e+06u l=500000u
X7 OUT N2 a_n7335_1845# VSSA sky130_fd_pr__nfet_g5v0d10v5 ad=2.4e+12p pd=1.68e+07u as=4e+11p ps=2.8e+06u w=1e+06u l=500000u
X8 OUT P2 a_n10215_1065# VDDA sky130_fd_pr__pfet_g5v0d10v5 ad=8e+11p pd=5.6e+06u as=4e+11p ps=2.8e+06u w=1e+06u l=500000u
X9 a_n5715_1845# a_n7205_1795# a_n5805_1845# VSSA sky130_fd_pr__nfet_g5v0d10v5 ad=4e+11p pd=2.8e+06u as=4e+11p ps=2.8e+06u w=1e+06u l=500000u
X10 a_n2385_1845# a_n3605_1795# a_n2475_1845# VSSA sky130_fd_pr__nfet_g5v0d10v5 ad=4e+11p pd=2.8e+06u as=4e+11p ps=2.8e+06u w=1e+06u l=500000u
X11 X INM YM VDDA sky130_fd_pr__pfet_g5v0d10v5 ad=0p pd=0u as=0p ps=0u w=1e+06u l=500000u
X12 a_n11205_50# a_n11525_35# a_n11525_35# VSSA sky130_fd_pr__nfet_g5v0d10v5 ad=4e+11p pd=2.8e+06u as=8e+11p ps=5.6e+06u w=1e+06u l=500000u
X13 a_n4455_50# a_n6485_35# a_n4545_50# VSSA sky130_fd_pr__nfet_g5v0d10v5 ad=4e+11p pd=2.8e+06u as=4e+11p ps=2.8e+06u w=1e+06u l=500000u
X14 VDDA a_n11525_780# a_n10935_830# VDDA sky130_fd_pr__pfet_g5v0d10v5 ad=5.6e+12p pd=3.92e+07u as=4e+11p ps=2.8e+06u w=1e+06u l=500000u
X15 YP INP X VDDA sky130_fd_pr__pfet_g5v0d10v5 ad=0p pd=0u as=0p ps=0u w=1e+06u l=500000u
X16 a_n10395_1845# N2 YM VSSA sky130_fd_pr__nfet_g5v0d10v5 ad=4e+11p pd=2.8e+06u as=0p ps=0u w=1e+06u l=500000u
X17 a_n11525_780# a_n11525_780# a_n11205_830# VDDA sky130_fd_pr__pfet_g5v0d10v5 ad=8e+11p pd=5.6e+06u as=4e+11p ps=2.8e+06u w=1e+06u l=500000u
X18 a_n3285_830# Z a_n3375_830# VDDA sky130_fd_pr__pfet_g5v0d10v5 ad=4e+11p pd=2.8e+06u as=4e+11p ps=2.8e+06u w=1e+06u l=500000u
X19 X INP YP VDDA sky130_fd_pr__pfet_g5v0d10v5 ad=0p pd=0u as=0p ps=0u w=1e+06u l=500000u
X20 X INM YM VDDA sky130_fd_pr__pfet_g5v0d10v5 ad=0p pd=0u as=0p ps=0u w=1e+06u l=500000u
X21 YP N2 a_n8415_1845# VSSA sky130_fd_pr__nfet_g5v0d10v5 ad=3.2e+12p pd=2.24e+07u as=4e+11p ps=2.8e+06u w=1e+06u l=500000u
X22 VDDA a_n725_1050# a_n135_1065# VDDA sky130_fd_pr__pfet_g5v0d10v5 ad=0p pd=0u as=4e+11p ps=2.8e+06u w=1e+06u l=500000u
X23 OUT N2 a_n1575_50# VSSA sky130_fd_pr__nfet_g5v0d10v5 ad=0p pd=0u as=4e+11p ps=2.8e+06u w=1e+06u l=500000u
X24 a_n11205_1065# a_n11525_1050# a_n11525_1050# VDDA sky130_fd_pr__pfet_g5v0d10v5 ad=4e+11p pd=2.8e+06u as=8e+11p ps=5.6e+06u w=1e+06u l=500000u
X25 a_n6795_1845# a_n7205_1795# a_n6885_1845# VSSA sky130_fd_pr__nfet_g5v0d10v5 ad=4e+11p pd=2.8e+06u as=4e+11p ps=2.8e+06u w=1e+06u l=500000u
X26 YP INP X VDDA sky130_fd_pr__pfet_g5v0d10v5 ad=0p pd=0u as=0p ps=0u w=1e+06u l=500000u
X27 a_n4995_1845# N2 OUT VSSA sky130_fd_pr__nfet_g5v0d10v5 ad=4e+11p pd=2.8e+06u as=0p ps=0u w=1e+06u l=500000u
X28 a_n9135_1065# Z a_n9225_1065# VDDA sky130_fd_pr__pfet_g5v0d10v5 ad=4e+11p pd=2.8e+06u as=4e+11p ps=2.8e+06u w=1e+06u l=500000u
X29 a_n3465_1845# a_n3605_1795# a_n3555_1845# VSSA sky130_fd_pr__nfet_g5v0d10v5 ad=4e+11p pd=2.8e+06u as=4e+11p ps=2.8e+06u w=1e+06u l=500000u
X30 a_n135_830# a_n725_780# a_n225_830# VDDA sky130_fd_pr__pfet_g5v0d10v5 ad=4e+11p pd=2.8e+06u as=4e+11p ps=2.8e+06u w=1e+06u l=500000u
X31 a_n855_830# Z a_n945_830# VDDA sky130_fd_pr__pfet_g5v0d10v5 ad=4e+11p pd=2.8e+06u as=4e+11p ps=2.8e+06u w=1e+06u l=500000u
X32 a_n7605_1065# P1 a_n7695_1065# VDDA sky130_fd_pr__pfet_g5v0d10v5 ad=4e+11p pd=2.8e+06u as=4e+11p ps=2.8e+06u w=1e+06u l=500000u
X33 a_n7335_50# N1 a_n7425_50# VSSA sky130_fd_pr__nfet_g5v0d10v5 ad=4e+11p pd=2.8e+06u as=4e+11p ps=2.8e+06u w=1e+06u l=500000u
X34 a_n4275_1065# P1 VDDA VDDA sky130_fd_pr__pfet_g5v0d10v5 ad=4e+11p pd=2.8e+06u as=0p ps=0u w=1e+06u l=500000u
X35 a_n11475_1845# a_n11525_1795# VSSA VSSA sky130_fd_pr__nfet_g5v0d10v5 ad=4e+11p pd=2.8e+06u as=0p ps=0u w=1e+06u l=500000u
X36 a_n135_1065# a_n725_1050# a_n225_1065# VDDA sky130_fd_pr__pfet_g5v0d10v5 ad=0p pd=0u as=4e+11p ps=2.8e+06u w=1e+06u l=500000u
X37 YP N1 a_n10575_50# VSSA sky130_fd_pr__nfet_g5v0d10v5 ad=0p pd=0u as=4e+11p ps=2.8e+06u w=1e+06u l=500000u
X38 VSSA N1 a_n9495_1845# VSSA sky130_fd_pr__nfet_g5v0d10v5 ad=0p pd=0u as=4e+11p ps=2.8e+06u w=1e+06u l=500000u
X39 a_n7875_1845# N1 VSSA VSSA sky130_fd_pr__nfet_g5v0d10v5 ad=4e+11p pd=2.8e+06u as=0p ps=0u w=1e+06u l=500000u
X40 a_n585_50# a_n725_35# a_n675_50# VSSA sky130_fd_pr__nfet_g5v0d10v5 ad=4e+11p pd=2.8e+06u as=4e+11p ps=2.8e+06u w=1e+06u l=500000u
X41 a_n6075_1845# a_n7205_1795# a_n7205_1795# VSSA sky130_fd_pr__nfet_g5v0d10v5 ad=4e+11p pd=2.8e+06u as=4e+11p ps=2.8e+06u w=1e+06u l=500000u
X42 a_n1035_830# Z a_n1125_830# VDDA sky130_fd_pr__pfet_g5v0d10v5 ad=4e+11p pd=2.8e+06u as=4e+11p ps=2.8e+06u w=1e+06u l=500000u
X43 a_n1755_830# P2 a_n1845_830# VDDA sky130_fd_pr__pfet_g5v0d10v5 ad=4e+11p pd=2.8e+06u as=4e+11p ps=2.8e+06u w=1e+06u l=500000u
X44 a_n10755_1065# Z VDDA VDDA sky130_fd_pr__pfet_g5v0d10v5 ad=4e+11p pd=2.8e+06u as=0p ps=0u w=1e+06u l=500000u
X45 Z a_n10085_35# a_n8055_50# VSSA sky130_fd_pr__nfet_g5v0d10v5 ad=2.4e+12p pd=1.68e+07u as=4e+11p ps=2.8e+06u w=1e+06u l=500000u
X46 X INM YM VDDA sky130_fd_pr__pfet_g5v0d10v5 ad=0p pd=0u as=0p ps=0u w=1e+06u l=500000u
X47 Z P2 a_n8775_1065# VDDA sky130_fd_pr__pfet_g5v0d10v5 ad=8e+11p pd=5.6e+06u as=4e+11p ps=2.8e+06u w=1e+06u l=500000u
X48 a_n405_1845# a_n725_1795# a_n725_1795# VSSA sky130_fd_pr__nfet_g5v0d10v5 ad=4e+11p pd=2.8e+06u as=8e+11p ps=5.6e+06u w=1e+06u l=500000u
X49 a_n9585_50# a_n10085_35# a_n9675_50# VSSA sky130_fd_pr__nfet_g5v0d10v5 ad=4e+11p pd=2.8e+06u as=4e+11p ps=2.8e+06u w=1e+06u l=500000u
X50 a_n6705_830# P2 a_n6795_830# VDDA sky130_fd_pr__pfet_g5v0d10v5 ad=4e+11p pd=2.8e+06u as=4e+11p ps=2.8e+06u w=1e+06u l=500000u
X51 VDDA a_n725_780# a_n135_830# VDDA sky130_fd_pr__pfet_g5v0d10v5 ad=0p pd=0u as=0p ps=0u w=1e+06u l=500000u
X52 YM INM X VDDA sky130_fd_pr__pfet_g5v0d10v5 ad=0p pd=0u as=0p ps=0u w=1e+06u l=500000u
X53 a_n4995_50# a_n6485_35# a_n5085_50# VSSA sky130_fd_pr__nfet_g5v0d10v5 ad=4e+11p pd=2.8e+06u as=4e+11p ps=2.8e+06u w=1e+06u l=500000u
X54 a_n6975_830# P1 a_n7065_830# VDDA sky130_fd_pr__pfet_g5v0d10v5 ad=4e+11p pd=2.8e+06u as=4e+11p ps=2.8e+06u w=1e+06u l=500000u
X55 YP INP X VDDA sky130_fd_pr__pfet_g5v0d10v5 ad=0p pd=0u as=0p ps=0u w=1e+06u l=500000u
X56 a_n6615_50# N2 a_n6705_50# VSSA sky130_fd_pr__nfet_g5v0d10v5 ad=4e+11p pd=2.8e+06u as=4e+11p ps=2.8e+06u w=1e+06u l=500000u
X57 a_n945_830# Z a_n1035_830# VDDA sky130_fd_pr__pfet_g5v0d10v5 ad=0p pd=0u as=0p ps=0u w=1e+06u l=500000u
X58 VSSA a_n725_35# a_n135_50# VSSA sky130_fd_pr__nfet_g5v0d10v5 ad=0p pd=0u as=4e+11p ps=2.8e+06u w=1e+06u l=500000u
X59 a_n2025_50# N1 a_n2115_50# VSSA sky130_fd_pr__nfet_g5v0d10v5 ad=4e+11p pd=2.8e+06u as=4e+11p ps=2.8e+06u w=1e+06u l=500000u
X60 a_n7155_1845# a_n7205_1795# OUT VSSA sky130_fd_pr__nfet_g5v0d10v5 ad=4e+11p pd=2.8e+06u as=0p ps=0u w=1e+06u l=500000u
X61 VSSA N1 a_n3735_50# VSSA sky130_fd_pr__nfet_g5v0d10v5 ad=0p pd=0u as=4e+11p ps=2.8e+06u w=1e+06u l=500000u
X62 a_n9765_1065# P2 a_n9855_1065# VDDA sky130_fd_pr__pfet_g5v0d10v5 ad=4e+11p pd=2.8e+06u as=4e+11p ps=2.8e+06u w=1e+06u l=500000u
X63 VDDA Z a_n8055_1065# VDDA sky130_fd_pr__pfet_g5v0d10v5 ad=0p pd=0u as=4e+11p ps=2.8e+06u w=1e+06u l=500000u
X64 a_n1845_830# Z a_n1935_830# VDDA sky130_fd_pr__pfet_g5v0d10v5 ad=0p pd=0u as=4e+11p ps=2.8e+06u w=1e+06u l=500000u
X65 a_n2835_1845# a_n3605_1795# a_n2925_1845# VSSA sky130_fd_pr__nfet_g5v0d10v5 ad=4e+11p pd=2.8e+06u as=4e+11p ps=2.8e+06u w=1e+06u l=500000u
X66 a_n8865_50# a_n10085_35# a_n8955_50# VSSA sky130_fd_pr__nfet_g5v0d10v5 ad=4e+11p pd=2.8e+06u as=4e+11p ps=2.8e+06u w=1e+06u l=500000u
X67 a_n1035_1845# N1 YP VSSA sky130_fd_pr__nfet_g5v0d10v5 ad=4e+11p pd=2.8e+06u as=0p ps=0u w=1e+06u l=500000u
X68 a_n10665_830# P1 a_n10755_830# VDDA sky130_fd_pr__pfet_g5v0d10v5 ad=4e+11p pd=2.8e+06u as=4e+11p ps=2.8e+06u w=1e+06u l=500000u
X69 a_n11025_50# a_n11525_35# a_n11525_35# VSSA sky130_fd_pr__nfet_g5v0d10v5 ad=4e+11p pd=2.8e+06u as=0p ps=0u w=1e+06u l=500000u
X70 a_n2115_830# Z VDDA VDDA sky130_fd_pr__pfet_g5v0d10v5 ad=4e+11p pd=2.8e+06u as=0p ps=0u w=1e+06u l=500000u
X71 VDDA P1 a_n855_1065# VDDA sky130_fd_pr__pfet_g5v0d10v5 ad=0p pd=0u as=4e+11p ps=2.8e+06u w=1e+06u l=500000u
X72 a_n4275_50# N2 OUT VSSA sky130_fd_pr__nfet_g5v0d10v5 ad=4e+11p pd=2.8e+06u as=0p ps=0u w=1e+06u l=500000u
X73 X P2 a_n3735_1065# VDDA sky130_fd_pr__pfet_g5v0d10v5 ad=0p pd=0u as=4e+11p ps=2.8e+06u w=1e+06u l=500000u
X74 VSSA a_n11525_1795# a_n10935_1845# VSSA sky130_fd_pr__nfet_g5v0d10v5 ad=0p pd=0u as=4e+11p ps=2.8e+06u w=1e+06u l=500000u
X75 a_n5895_50# a_n6485_35# a_n5985_50# VSSA sky130_fd_pr__nfet_g5v0d10v5 ad=4e+11p pd=2.8e+06u as=4e+11p ps=2.8e+06u w=1e+06u l=500000u
X76 a_n7785_830# P2 a_n7875_830# VDDA sky130_fd_pr__pfet_g5v0d10v5 ad=4e+11p pd=2.8e+06u as=0p ps=0u w=1e+06u l=500000u
X77 YP INP X VDDA sky130_fd_pr__pfet_g5v0d10v5 ad=0p pd=0u as=0p ps=0u w=1e+06u l=500000u
X78 a_n1305_50# N2 a_n1395_50# VSSA sky130_fd_pr__nfet_g5v0d10v5 ad=4e+11p pd=2.8e+06u as=4e+11p ps=2.8e+06u w=1e+06u l=500000u
X79 a_n5445_1845# a_n7205_1795# a_n5535_1845# VSSA sky130_fd_pr__nfet_g5v0d10v5 ad=4e+11p pd=2.8e+06u as=4e+11p ps=2.8e+06u w=1e+06u l=500000u
X80 Z N2 a_n3015_50# VSSA sky130_fd_pr__nfet_g5v0d10v5 ad=0p pd=0u as=4e+11p ps=2.8e+06u w=1e+06u l=500000u
X81 a_n3915_1845# N2 YP VSSA sky130_fd_pr__nfet_g5v0d10v5 ad=4e+11p pd=2.8e+06u as=0p ps=0u w=1e+06u l=500000u
X82 a_n2115_1845# a_n3605_1795# a_n2205_1845# VSSA sky130_fd_pr__nfet_g5v0d10v5 ad=4e+11p pd=2.8e+06u as=4e+11p ps=2.8e+06u w=1e+06u l=500000u
X83 a_n4725_1065# P2 a_n4815_1065# VDDA sky130_fd_pr__pfet_g5v0d10v5 ad=4e+11p pd=2.8e+06u as=4e+11p ps=2.8e+06u w=1e+06u l=500000u
X84 OUT N2 a_n10215_1845# VSSA sky130_fd_pr__nfet_g5v0d10v5 ad=0p pd=0u as=4e+11p ps=2.8e+06u w=1e+06u l=500000u
X85 a_n10305_50# N2 a_n10395_50# VSSA sky130_fd_pr__nfet_g5v0d10v5 ad=4e+11p pd=2.8e+06u as=4e+11p ps=2.8e+06u w=1e+06u l=500000u
X86 a_n3555_50# N1 VSSA VSSA sky130_fd_pr__nfet_g5v0d10v5 ad=4e+11p pd=2.8e+06u as=0p ps=0u w=1e+06u l=500000u
X87 a_n1395_1065# P2 X VDDA sky130_fd_pr__pfet_g5v0d10v5 ad=4e+11p pd=2.8e+06u as=0p ps=0u w=1e+06u l=500000u
X88 Z P2 a_n3015_830# VDDA sky130_fd_pr__pfet_g5v0d10v5 ad=0p pd=0u as=4e+11p ps=2.8e+06u w=1e+06u l=500000u
X89 a_n11025_830# a_n11525_780# a_n11525_780# VDDA sky130_fd_pr__pfet_g5v0d10v5 ad=4e+11p pd=2.8e+06u as=0p ps=0u w=1e+06u l=500000u
X90 a_n405_50# a_n725_35# a_n725_35# VSSA sky130_fd_pr__nfet_g5v0d10v5 ad=4e+11p pd=2.8e+06u as=8e+11p ps=5.6e+06u w=1e+06u l=500000u
X91 a_n3195_830# P2 a_n3285_830# VDDA sky130_fd_pr__pfet_g5v0d10v5 ad=4e+11p pd=2.8e+06u as=0p ps=0u w=1e+06u l=500000u
X92 a_n6525_1845# a_n7205_1795# a_n6615_1845# VSSA sky130_fd_pr__nfet_g5v0d10v5 ad=4e+11p pd=2.8e+06u as=4e+11p ps=2.8e+06u w=1e+06u l=500000u
X93 YM INM X VDDA sky130_fd_pr__pfet_g5v0d10v5 ad=0p pd=0u as=0p ps=0u w=1e+06u l=500000u
X94 a_n3195_1845# a_n3605_1795# a_n3285_1845# VSSA sky130_fd_pr__nfet_g5v0d10v5 ad=4e+11p pd=2.8e+06u as=4e+11p ps=2.8e+06u w=1e+06u l=500000u
X95 X INP YP VDDA sky130_fd_pr__pfet_g5v0d10v5 ad=0p pd=0u as=0p ps=0u w=1e+06u l=500000u
X96 X INP YP VDDA sky130_fd_pr__pfet_g5v0d10v5 ad=0p pd=0u as=0p ps=0u w=1e+06u l=500000u
X97 a_n9405_50# a_n10085_35# a_n9495_50# VSSA sky130_fd_pr__nfet_g5v0d10v5 ad=4e+11p pd=2.8e+06u as=4e+11p ps=2.8e+06u w=1e+06u l=500000u
X98 a_n7335_1065# P2 a_n7425_1065# VDDA sky130_fd_pr__pfet_g5v0d10v5 ad=4e+11p pd=2.8e+06u as=4e+11p ps=2.8e+06u w=1e+06u l=500000u
X99 a_n1665_1845# a_n3605_1795# a_n1755_1845# VSSA sky130_fd_pr__nfet_g5v0d10v5 ad=4e+11p pd=2.8e+06u as=4e+11p ps=2.8e+06u w=1e+06u l=500000u
X100 X INM YM VDDA sky130_fd_pr__pfet_g5v0d10v5 ad=0p pd=0u as=0p ps=0u w=1e+06u l=500000u
X101 VDDA Z a_n855_830# VDDA sky130_fd_pr__pfet_g5v0d10v5 ad=0p pd=0u as=0p ps=0u w=1e+06u l=500000u
X102 a_n4005_1065# P1 a_n4095_1065# VDDA sky130_fd_pr__pfet_g5v0d10v5 ad=0p pd=0u as=4e+11p ps=2.8e+06u w=1e+06u l=500000u
X103 VSSA a_n725_1795# a_n135_1845# VSSA sky130_fd_pr__nfet_g5v0d10v5 ad=0p pd=0u as=4e+11p ps=2.8e+06u w=1e+06u l=500000u
X104 a_n11205_1845# a_n11525_1795# a_n11525_1795# VSSA sky130_fd_pr__nfet_g5v0d10v5 ad=4e+11p pd=2.8e+06u as=8e+11p ps=5.6e+06u w=1e+06u l=500000u
X105 YP INP X VDDA sky130_fd_pr__pfet_g5v0d10v5 ad=0p pd=0u as=0p ps=0u w=1e+06u l=500000u
X106 a_n6435_50# a_n6485_35# OUT VSSA sky130_fd_pr__nfet_g5v0d10v5 ad=4e+11p pd=2.8e+06u as=0p ps=0u w=1e+06u l=500000u
X107 a_n9135_1845# N1 a_n9225_1845# VSSA sky130_fd_pr__nfet_g5v0d10v5 ad=4e+11p pd=2.8e+06u as=4e+11p ps=2.8e+06u w=1e+06u l=500000u
X108 YM N1 a_n7695_1845# VSSA sky130_fd_pr__nfet_g5v0d10v5 ad=0p pd=0u as=4e+11p ps=2.8e+06u w=1e+06u l=500000u
X109 a_n10485_1065# Z a_n10575_1065# VDDA sky130_fd_pr__pfet_g5v0d10v5 ad=4e+11p pd=2.8e+06u as=4e+11p ps=2.8e+06u w=1e+06u l=500000u
X110 a_n4275_1845# N1 VSSA VSSA sky130_fd_pr__nfet_g5v0d10v5 ad=4e+11p pd=2.8e+06u as=0p ps=0u w=1e+06u l=500000u
X111 a_n135_1845# a_n725_1795# a_n225_1845# VSSA sky130_fd_pr__nfet_g5v0d10v5 ad=0p pd=0u as=4e+11p ps=2.8e+06u w=1e+06u l=500000u
X112 a_n1665_830# P2 a_n1755_830# VDDA sky130_fd_pr__pfet_g5v0d10v5 ad=4e+11p pd=2.8e+06u as=0p ps=0u w=1e+06u l=500000u
X113 a_n8415_1065# P2 a_n8505_1065# VDDA sky130_fd_pr__pfet_g5v0d10v5 ad=4e+11p pd=2.8e+06u as=4e+11p ps=2.8e+06u w=1e+06u l=500000u
X114 a_n7065_50# N1 a_n7155_50# VSSA sky130_fd_pr__nfet_g5v0d10v5 ad=4e+11p pd=2.8e+06u as=4e+11p ps=2.8e+06u w=1e+06u l=500000u
X115 X INM YM VDDA sky130_fd_pr__pfet_g5v0d10v5 ad=0p pd=0u as=0p ps=0u w=1e+06u l=500000u
X116 a_n4275_830# P2 X VDDA sky130_fd_pr__pfet_g5v0d10v5 ad=4e+11p pd=2.8e+06u as=0p ps=0u w=1e+06u l=500000u
X117 X INM YM VDDA sky130_fd_pr__pfet_g5v0d10v5 ad=0p pd=0u as=0p ps=0u w=1e+06u l=500000u
X118 a_n8685_50# a_n10085_35# a_n8775_50# VSSA sky130_fd_pr__nfet_g5v0d10v5 ad=4e+11p pd=2.8e+06u as=4e+11p ps=2.8e+06u w=1e+06u l=500000u
X119 a_n6615_830# P2 a_n6705_830# VDDA sky130_fd_pr__pfet_g5v0d10v5 ad=4e+11p pd=2.8e+06u as=0p ps=0u w=1e+06u l=500000u
X120 YP INP X VDDA sky130_fd_pr__pfet_g5v0d10v5 ad=0p pd=0u as=0p ps=0u w=1e+06u l=500000u
X121 a_n10755_1845# N1 VSSA VSSA sky130_fd_pr__nfet_g5v0d10v5 ad=4e+11p pd=2.8e+06u as=0p ps=0u w=1e+06u l=500000u
X122 a_n4095_50# N2 a_n4185_50# VSSA sky130_fd_pr__nfet_g5v0d10v5 ad=4e+11p pd=2.8e+06u as=4e+11p ps=2.8e+06u w=1e+06u l=500000u
X123 X INP YP VDDA sky130_fd_pr__pfet_g5v0d10v5 ad=0p pd=0u as=0p ps=0u w=1e+06u l=500000u
X124 Z N2 a_n8775_1845# VSSA sky130_fd_pr__nfet_g5v0d10v5 ad=0p pd=0u as=4e+11p ps=2.8e+06u w=1e+06u l=500000u
X125 a_n5715_50# a_n6485_35# a_n5805_50# VSSA sky130_fd_pr__nfet_g5v0d10v5 ad=4e+11p pd=2.8e+06u as=4e+11p ps=2.8e+06u w=1e+06u l=500000u
X126 a_n5355_1845# a_n7205_1795# a_n5445_1845# VSSA sky130_fd_pr__nfet_g5v0d10v5 ad=4e+11p pd=2.8e+06u as=0p ps=0u w=1e+06u l=500000u
X127 YM N2 a_n1215_50# VSSA sky130_fd_pr__nfet_g5v0d10v5 ad=0p pd=0u as=4e+11p ps=2.8e+06u w=1e+06u l=500000u
X128 a_n9495_1065# Z a_n9585_1065# VDDA sky130_fd_pr__pfet_g5v0d10v5 ad=4e+11p pd=2.8e+06u as=4e+11p ps=2.8e+06u w=1e+06u l=500000u
X129 a_n2745_50# N2 a_n2835_50# VSSA sky130_fd_pr__nfet_g5v0d10v5 ad=4e+11p pd=2.8e+06u as=4e+11p ps=2.8e+06u w=1e+06u l=500000u
X130 X INM YM VDDA sky130_fd_pr__pfet_g5v0d10v5 ad=0p pd=0u as=0p ps=0u w=1e+06u l=500000u
X131 a_n725_1050# a_n725_1050# a_n585_1065# VDDA sky130_fd_pr__pfet_g5v0d10v5 ad=8e+11p pd=5.6e+06u as=4e+11p ps=2.8e+06u w=1e+06u l=500000u
X132 a_n10575_830# P1 a_n10665_830# VDDA sky130_fd_pr__pfet_g5v0d10v5 ad=4e+11p pd=2.8e+06u as=0p ps=0u w=1e+06u l=500000u
X133 YM N2 a_n9855_1845# VSSA sky130_fd_pr__nfet_g5v0d10v5 ad=0p pd=0u as=4e+11p ps=2.8e+06u w=1e+06u l=500000u
X134 Z N2 a_n10215_50# VSSA sky130_fd_pr__nfet_g5v0d10v5 ad=0p pd=0u as=4e+11p ps=2.8e+06u w=1e+06u l=500000u
X135 a_n2025_830# Z a_n2115_830# VDDA sky130_fd_pr__pfet_g5v0d10v5 ad=4e+11p pd=2.8e+06u as=0p ps=0u w=1e+06u l=500000u
X136 X INP YP VDDA sky130_fd_pr__pfet_g5v0d10v5 ad=0p pd=0u as=0p ps=0u w=1e+06u l=500000u
X137 VSSA N1 a_n8055_1845# VSSA sky130_fd_pr__nfet_g5v0d10v5 ad=0p pd=0u as=4e+11p ps=2.8e+06u w=1e+06u l=500000u
X138 a_n3375_50# N1 a_n3465_50# VSSA sky130_fd_pr__nfet_g5v0d10v5 ad=4e+11p pd=2.8e+06u as=4e+11p ps=2.8e+06u w=1e+06u l=500000u
X139 YM INM X VDDA sky130_fd_pr__pfet_g5v0d10v5 ad=0p pd=0u as=0p ps=0u w=1e+06u l=500000u
X140 a_n7695_830# P2 a_n7785_830# VDDA sky130_fd_pr__pfet_g5v0d10v5 ad=4e+11p pd=2.8e+06u as=0p ps=0u w=1e+06u l=500000u
X141 a_n225_50# a_n725_35# a_n725_35# VSSA sky130_fd_pr__nfet_g5v0d10v5 ad=4e+11p pd=2.8e+06u as=0p ps=0u w=1e+06u l=500000u
X142 VSSA N1 a_n855_1845# VSSA sky130_fd_pr__nfet_g5v0d10v5 ad=0p pd=0u as=4e+11p ps=2.8e+06u w=1e+06u l=500000u
X143 X INP YP VDDA sky130_fd_pr__pfet_g5v0d10v5 ad=0p pd=0u as=0p ps=0u w=1e+06u l=500000u
X144 Z N2 a_n3735_1845# VSSA sky130_fd_pr__nfet_g5v0d10v5 ad=0p pd=0u as=4e+11p ps=2.8e+06u w=1e+06u l=500000u
X145 a_n9225_50# a_n10085_35# a_n9315_50# VSSA sky130_fd_pr__nfet_g5v0d10v5 ad=4e+11p pd=2.8e+06u as=4e+11p ps=2.8e+06u w=1e+06u l=500000u
X146 X INP YP VDDA sky130_fd_pr__pfet_g5v0d10v5 ad=0p pd=0u as=0p ps=0u w=1e+06u l=500000u
X147 a_n1125_1065# P2 a_n1215_1065# VDDA sky130_fd_pr__pfet_g5v0d10v5 ad=4e+11p pd=2.8e+06u as=4e+11p ps=2.8e+06u w=1e+06u l=500000u
X148 a_n2655_50# N2 a_n2745_50# VSSA sky130_fd_pr__nfet_g5v0d10v5 ad=4e+11p pd=2.8e+06u as=0p ps=0u w=1e+06u l=500000u
X149 a_n10935_1065# a_n11525_1050# a_n11025_1065# VDDA sky130_fd_pr__pfet_g5v0d10v5 ad=4e+11p pd=2.8e+06u as=4e+11p ps=2.8e+06u w=1e+06u l=500000u
X150 a_n2835_830# P2 Z VDDA sky130_fd_pr__pfet_g5v0d10v5 ad=4e+11p pd=2.8e+06u as=0p ps=0u w=1e+06u l=500000u
X151 YM N2 a_n4815_1845# VSSA sky130_fd_pr__nfet_g5v0d10v5 ad=0p pd=0u as=4e+11p ps=2.8e+06u w=1e+06u l=500000u
X152 a_n3105_830# P2 a_n3195_830# VDDA sky130_fd_pr__pfet_g5v0d10v5 ad=4e+11p pd=2.8e+06u as=0p ps=0u w=1e+06u l=500000u
X153 X INM YM VDDA sky130_fd_pr__pfet_g5v0d10v5 ad=0p pd=0u as=0p ps=0u w=1e+06u l=500000u
X154 a_n1395_1845# N2 Z VSSA sky130_fd_pr__nfet_g5v0d10v5 ad=4e+11p pd=2.8e+06u as=0p ps=0u w=1e+06u l=500000u
X155 YP INP X VDDA sky130_fd_pr__pfet_g5v0d10v5 ad=0p pd=0u as=0p ps=0u w=1e+06u l=500000u
X156 YM INM X VDDA sky130_fd_pr__pfet_g5v0d10v5 ad=0p pd=0u as=0p ps=0u w=1e+06u l=500000u
X157 a_n8505_50# a_n10085_35# a_n8595_50# VSSA sky130_fd_pr__nfet_g5v0d10v5 ad=4e+11p pd=2.8e+06u as=4e+11p ps=2.8e+06u w=1e+06u l=500000u
X158 X INP YP VDDA sky130_fd_pr__pfet_g5v0d10v5 ad=0p pd=0u as=0p ps=0u w=1e+06u l=500000u
X159 a_n675_830# a_n725_780# VDDA VDDA sky130_fd_pr__pfet_g5v0d10v5 ad=4e+11p pd=2.8e+06u as=0p ps=0u w=1e+06u l=500000u
X160 a_n7335_1845# N2 a_n7425_1845# VSSA sky130_fd_pr__nfet_g5v0d10v5 ad=0p pd=0u as=4e+11p ps=2.8e+06u w=1e+06u l=500000u
X161 a_n5535_50# a_n6485_35# a_n5625_50# VSSA sky130_fd_pr__nfet_g5v0d10v5 ad=4e+11p pd=2.8e+06u as=4e+11p ps=2.8e+06u w=1e+06u l=500000u
X162 a_n10215_1065# P2 a_n10305_1065# VDDA sky130_fd_pr__pfet_g5v0d10v5 ad=0p pd=0u as=4e+11p ps=2.8e+06u w=1e+06u l=500000u
X163 a_n5805_1845# a_n7205_1795# a_n5895_1845# VSSA sky130_fd_pr__nfet_g5v0d10v5 ad=0p pd=0u as=4e+11p ps=2.8e+06u w=1e+06u l=500000u
X164 a_n9945_1065# P2 a_n10035_1065# VDDA sky130_fd_pr__pfet_g5v0d10v5 ad=4e+11p pd=2.8e+06u as=4e+11p ps=2.8e+06u w=1e+06u l=500000u
X165 YP N1 a_n4095_1845# VSSA sky130_fd_pr__nfet_g5v0d10v5 ad=0p pd=0u as=4e+11p ps=2.8e+06u w=1e+06u l=500000u
X166 a_n8145_1065# Z a_n8235_1065# VDDA sky130_fd_pr__pfet_g5v0d10v5 ad=4e+11p pd=2.8e+06u as=4e+11p ps=2.8e+06u w=1e+06u l=500000u
X167 a_n2475_1845# a_n3605_1795# a_n3605_1795# VSSA sky130_fd_pr__nfet_g5v0d10v5 ad=0p pd=0u as=4e+11p ps=2.8e+06u w=1e+06u l=500000u
X168 YM INM X VDDA sky130_fd_pr__pfet_g5v0d10v5 ad=0p pd=0u as=0p ps=0u w=1e+06u l=500000u
X169 a_n1575_830# P2 a_n1665_830# VDDA sky130_fd_pr__pfet_g5v0d10v5 ad=4e+11p pd=2.8e+06u as=0p ps=0u w=1e+06u l=500000u
X170 a_n6165_50# a_n6485_35# a_n6255_50# VSSA sky130_fd_pr__nfet_g5v0d10v5 ad=4e+11p pd=2.8e+06u as=4e+11p ps=2.8e+06u w=1e+06u l=500000u
X171 a_n3915_830# P1 a_n4005_830# VDDA sky130_fd_pr__pfet_g5v0d10v5 ad=4e+11p pd=2.8e+06u as=4e+11p ps=2.8e+06u w=1e+06u l=500000u
X172 a_n945_1065# P1 a_n1035_1065# VDDA sky130_fd_pr__pfet_g5v0d10v5 ad=4e+11p pd=2.8e+06u as=4e+11p ps=2.8e+06u w=1e+06u l=500000u
X173 X INP YP VDDA sky130_fd_pr__pfet_g5v0d10v5 ad=0p pd=0u as=0p ps=0u w=1e+06u l=500000u
X174 YM N1 a_n10575_1845# VSSA sky130_fd_pr__nfet_g5v0d10v5 ad=0p pd=0u as=4e+11p ps=2.8e+06u w=1e+06u l=500000u
X175 a_n4185_830# P2 a_n4275_830# VDDA sky130_fd_pr__pfet_g5v0d10v5 ad=4e+11p pd=2.8e+06u as=0p ps=0u w=1e+06u l=500000u
X176 YP INP X VDDA sky130_fd_pr__pfet_g5v0d10v5 ad=0p pd=0u as=0p ps=0u w=1e+06u l=500000u
X177 a_n7785_50# N2 a_n7875_50# VSSA sky130_fd_pr__nfet_g5v0d10v5 ad=4e+11p pd=2.8e+06u as=4e+11p ps=2.8e+06u w=1e+06u l=500000u
X178 X P2 a_n6615_830# VDDA sky130_fd_pr__pfet_g5v0d10v5 ad=0p pd=0u as=0p ps=0u w=1e+06u l=500000u
X179 a_n8415_1845# N2 a_n8505_1845# VSSA sky130_fd_pr__nfet_g5v0d10v5 ad=0p pd=0u as=4e+11p ps=2.8e+06u w=1e+06u l=500000u
X180 a_n3195_50# N2 YP VSSA sky130_fd_pr__nfet_g5v0d10v5 ad=4e+11p pd=2.8e+06u as=0p ps=0u w=1e+06u l=500000u
X181 YP INP X VDDA sky130_fd_pr__pfet_g5v0d10v5 ad=0p pd=0u as=0p ps=0u w=1e+06u l=500000u
X182 a_n11525_1050# a_n11525_1050# a_n11385_1065# VDDA sky130_fd_pr__pfet_g5v0d10v5 ad=0p pd=0u as=4e+11p ps=2.8e+06u w=1e+06u l=500000u
X183 a_n6885_1845# a_n7205_1795# a_n6975_1845# VSSA sky130_fd_pr__nfet_g5v0d10v5 ad=0p pd=0u as=4e+11p ps=2.8e+06u w=1e+06u l=500000u
X184 YP INP X VDDA sky130_fd_pr__pfet_g5v0d10v5 ad=0p pd=0u as=0p ps=0u w=1e+06u l=500000u
X185 OUT a_n7205_1795# a_n5175_1845# VSSA sky130_fd_pr__nfet_g5v0d10v5 ad=0p pd=0u as=4e+11p ps=2.8e+06u w=1e+06u l=500000u
X186 a_n4815_50# a_n6485_35# a_n4905_50# VSSA sky130_fd_pr__nfet_g5v0d10v5 ad=4e+11p pd=2.8e+06u as=4e+11p ps=2.8e+06u w=1e+06u l=500000u
X187 a_n9225_1065# Z a_n9315_1065# VDDA sky130_fd_pr__pfet_g5v0d10v5 ad=0p pd=0u as=4e+11p ps=2.8e+06u w=1e+06u l=500000u
X188 a_n3555_1845# a_n3605_1795# Z VSSA sky130_fd_pr__nfet_g5v0d10v5 ad=0p pd=0u as=0p ps=0u w=1e+06u l=500000u
X189 a_n7695_1065# P1 a_n7785_1065# VDDA sky130_fd_pr__pfet_g5v0d10v5 ad=0p pd=0u as=4e+11p ps=2.8e+06u w=1e+06u l=500000u
X190 YM N1 a_n1935_50# VSSA sky130_fd_pr__nfet_g5v0d10v5 ad=0p pd=0u as=4e+11p ps=2.8e+06u w=1e+06u l=500000u
X191 a_n10085_35# a_n10085_35# a_n9135_50# VSSA sky130_fd_pr__nfet_g5v0d10v5 ad=4e+11p pd=2.8e+06u as=4e+11p ps=2.8e+06u w=1e+06u l=500000u
X192 VDDA P1 a_n4455_1065# VDDA sky130_fd_pr__pfet_g5v0d10v5 ad=0p pd=0u as=4e+11p ps=2.8e+06u w=1e+06u l=500000u
X193 a_n225_1065# a_n725_1050# a_n725_1050# VDDA sky130_fd_pr__pfet_g5v0d10v5 ad=0p pd=0u as=0p ps=0u w=1e+06u l=500000u
X194 a_n9495_1845# N1 a_n9585_1845# VSSA sky130_fd_pr__nfet_g5v0d10v5 ad=0p pd=0u as=4e+11p ps=2.8e+06u w=1e+06u l=500000u
X195 a_n2655_830# P2 a_n2745_830# VDDA sky130_fd_pr__pfet_g5v0d10v5 ad=4e+11p pd=2.8e+06u as=4e+11p ps=2.8e+06u w=1e+06u l=500000u
X196 a_n10485_830# P1 a_n10575_830# VDDA sky130_fd_pr__pfet_g5v0d10v5 ad=4e+11p pd=2.8e+06u as=0p ps=0u w=1e+06u l=500000u
X197 a_n7205_1795# a_n7205_1795# a_n6255_1845# VSSA sky130_fd_pr__nfet_g5v0d10v5 ad=0p pd=0u as=4e+11p ps=2.8e+06u w=1e+06u l=500000u
X198 a_n2475_50# N1 YP VSSA sky130_fd_pr__nfet_g5v0d10v5 ad=4e+11p pd=2.8e+06u as=0p ps=0u w=1e+06u l=500000u
X199 a_n8775_1065# P2 a_n8865_1065# VDDA sky130_fd_pr__pfet_g5v0d10v5 ad=0p pd=0u as=4e+11p ps=2.8e+06u w=1e+06u l=500000u
X200 a_n725_1795# a_n725_1795# a_n585_1845# VSSA sky130_fd_pr__nfet_g5v0d10v5 ad=0p pd=0u as=4e+11p ps=2.8e+06u w=1e+06u l=500000u
X201 VSSA a_n11525_35# a_n10935_50# VSSA sky130_fd_pr__nfet_g5v0d10v5 ad=0p pd=0u as=4e+11p ps=2.8e+06u w=1e+06u l=500000u
X202 X INM YM VDDA sky130_fd_pr__pfet_g5v0d10v5 ad=0p pd=0u as=0p ps=0u w=1e+06u l=500000u
X203 a_n7605_830# P2 a_n7695_830# VDDA sky130_fd_pr__pfet_g5v0d10v5 ad=4e+11p pd=2.8e+06u as=0p ps=0u w=1e+06u l=500000u
X204 YM INM X VDDA sky130_fd_pr__pfet_g5v0d10v5 ad=0p pd=0u as=0p ps=0u w=1e+06u l=500000u
X205 X INP YP VDDA sky130_fd_pr__pfet_g5v0d10v5 ad=0p pd=0u as=0p ps=0u w=1e+06u l=500000u
X206 a_n1845_1845# a_n3605_1795# a_n1935_1845# VSSA sky130_fd_pr__nfet_g5v0d10v5 ad=4e+11p pd=2.8e+06u as=4e+11p ps=2.8e+06u w=1e+06u l=500000u
X207 a_n945_50# N1 a_n1035_50# VSSA sky130_fd_pr__nfet_g5v0d10v5 ad=4e+11p pd=2.8e+06u as=4e+11p ps=2.8e+06u w=1e+06u l=500000u
X208 a_n8325_50# a_n10085_35# a_n8415_50# VSSA sky130_fd_pr__nfet_g5v0d10v5 ad=4e+11p pd=2.8e+06u as=4e+11p ps=2.8e+06u w=1e+06u l=500000u
X209 a_n9945_50# a_n10085_35# a_n10035_50# VSSA sky130_fd_pr__nfet_g5v0d10v5 ad=4e+11p pd=2.8e+06u as=4e+11p ps=2.8e+06u w=1e+06u l=500000u
X210 a_n11475_50# a_n11525_35# VSSA VSSA sky130_fd_pr__nfet_g5v0d10v5 ad=4e+11p pd=2.8e+06u as=0p ps=0u w=1e+06u l=500000u
X211 a_n9855_1065# P2 a_n9945_1065# VDDA sky130_fd_pr__pfet_g5v0d10v5 ad=0p pd=0u as=0p ps=0u w=1e+06u l=500000u
X212 a_n8055_1065# Z a_n8145_1065# VDDA sky130_fd_pr__pfet_g5v0d10v5 ad=0p pd=0u as=0p ps=0u w=1e+06u l=500000u
X213 a_n1755_50# N2 YM VSSA sky130_fd_pr__nfet_g5v0d10v5 ad=4e+11p pd=2.8e+06u as=0p ps=0u w=1e+06u l=500000u
X214 a_n8955_50# a_n10085_35# a_n10085_35# VSSA sky130_fd_pr__nfet_g5v0d10v5 ad=0p pd=0u as=0p ps=0u w=1e+06u l=500000u
X215 a_n2925_1845# a_n3605_1795# a_n3015_1845# VSSA sky130_fd_pr__nfet_g5v0d10v5 ad=0p pd=0u as=4e+11p ps=2.8e+06u w=1e+06u l=500000u
X216 a_n2745_830# P2 a_n2835_830# VDDA sky130_fd_pr__pfet_g5v0d10v5 ad=0p pd=0u as=0p ps=0u w=1e+06u l=500000u
X217 YP N2 a_n1215_1845# VSSA sky130_fd_pr__nfet_g5v0d10v5 ad=0p pd=0u as=4e+11p ps=2.8e+06u w=1e+06u l=500000u
X218 a_n3015_830# P2 a_n3105_830# VDDA sky130_fd_pr__pfet_g5v0d10v5 ad=0p pd=0u as=0p ps=0u w=1e+06u l=500000u
X219 a_n855_1065# P1 a_n945_1065# VDDA sky130_fd_pr__pfet_g5v0d10v5 ad=0p pd=0u as=0p ps=0u w=1e+06u l=500000u
X220 a_n3735_1065# P2 a_n3825_1065# VDDA sky130_fd_pr__pfet_g5v0d10v5 ad=0p pd=0u as=4e+11p ps=2.8e+06u w=1e+06u l=500000u
X221 a_n10935_1845# a_n11525_1795# a_n11025_1845# VSSA sky130_fd_pr__nfet_g5v0d10v5 ad=0p pd=0u as=4e+11p ps=2.8e+06u w=1e+06u l=500000u
X222 a_n5985_50# a_n6485_35# a_n6075_50# VSSA sky130_fd_pr__nfet_g5v0d10v5 ad=0p pd=0u as=4e+11p ps=2.8e+06u w=1e+06u l=500000u
X223 X INP YP VDDA sky130_fd_pr__pfet_g5v0d10v5 ad=0p pd=0u as=0p ps=0u w=1e+06u l=500000u
X224 YP N2 a_n7695_50# VSSA sky130_fd_pr__nfet_g5v0d10v5 ad=0p pd=0u as=4e+11p ps=2.8e+06u w=1e+06u l=500000u
X225 YP INP X VDDA sky130_fd_pr__pfet_g5v0d10v5 ad=0p pd=0u as=0p ps=0u w=1e+06u l=500000u
X226 a_n3015_50# N2 a_n3105_50# VSSA sky130_fd_pr__nfet_g5v0d10v5 ad=0p pd=0u as=4e+11p ps=2.8e+06u w=1e+06u l=500000u
X227 a_n10755_50# N1 VSSA VSSA sky130_fd_pr__nfet_g5v0d10v5 ad=4e+11p pd=2.8e+06u as=0p ps=0u w=1e+06u l=500000u
X228 a_n585_830# a_n725_780# a_n675_830# VDDA sky130_fd_pr__pfet_g5v0d10v5 ad=4e+11p pd=2.8e+06u as=0p ps=0u w=1e+06u l=500000u
X229 a_n5535_1845# a_n7205_1795# a_n5625_1845# VSSA sky130_fd_pr__nfet_g5v0d10v5 ad=0p pd=0u as=4e+11p ps=2.8e+06u w=1e+06u l=500000u
X230 a_n4635_50# a_n6485_35# a_n4725_50# VSSA sky130_fd_pr__nfet_g5v0d10v5 ad=4e+11p pd=2.8e+06u as=4e+11p ps=2.8e+06u w=1e+06u l=500000u
X231 a_n855_50# N1 a_n945_50# VSSA sky130_fd_pr__nfet_g5v0d10v5 ad=4e+11p pd=2.8e+06u as=0p ps=0u w=1e+06u l=500000u
X232 a_n2205_1845# a_n3605_1795# a_n2295_1845# VSSA sky130_fd_pr__nfet_g5v0d10v5 ad=0p pd=0u as=4e+11p ps=2.8e+06u w=1e+06u l=500000u
X233 X INM YM VDDA sky130_fd_pr__pfet_g5v0d10v5 ad=0p pd=0u as=0p ps=0u w=1e+06u l=500000u
X234 a_n4815_1065# P2 a_n4905_1065# VDDA sky130_fd_pr__pfet_g5v0d10v5 ad=0p pd=0u as=4e+11p ps=2.8e+06u w=1e+06u l=500000u
X235 a_n9855_50# a_n10085_35# a_n9945_50# VSSA sky130_fd_pr__nfet_g5v0d10v5 ad=4e+11p pd=2.8e+06u as=0p ps=0u w=1e+06u l=500000u
X236 YP INP X VDDA sky130_fd_pr__pfet_g5v0d10v5 ad=0p pd=0u as=0p ps=0u w=1e+06u l=500000u
X237 a_n10215_1845# N2 a_n10305_1845# VSSA sky130_fd_pr__nfet_g5v0d10v5 ad=0p pd=0u as=4e+11p ps=2.8e+06u w=1e+06u l=500000u
X238 OUT P2 a_n1575_830# VDDA sky130_fd_pr__pfet_g5v0d10v5 ad=0p pd=0u as=0p ps=0u w=1e+06u l=500000u
X239 X INP YP VDDA sky130_fd_pr__pfet_g5v0d10v5 ad=0p pd=0u as=0p ps=0u w=1e+06u l=500000u
X240 a_n9945_1845# N2 a_n10035_1845# VSSA sky130_fd_pr__nfet_g5v0d10v5 ad=4e+11p pd=2.8e+06u as=4e+11p ps=2.8e+06u w=1e+06u l=500000u
X241 a_n5265_50# a_n6485_35# a_n5355_50# VSSA sky130_fd_pr__nfet_g5v0d10v5 ad=4e+11p pd=2.8e+06u as=4e+11p ps=2.8e+06u w=1e+06u l=500000u
X242 a_n3825_830# P1 a_n3915_830# VDDA sky130_fd_pr__pfet_g5v0d10v5 ad=4e+11p pd=2.8e+06u as=0p ps=0u w=1e+06u l=500000u
X243 a_n8145_1845# N1 a_n8235_1845# VSSA sky130_fd_pr__nfet_g5v0d10v5 ad=4e+11p pd=2.8e+06u as=4e+11p ps=2.8e+06u w=1e+06u l=500000u
X244 a_n4095_830# P2 a_n4185_830# VDDA sky130_fd_pr__pfet_g5v0d10v5 ad=4e+11p pd=2.8e+06u as=0p ps=0u w=1e+06u l=500000u
X245 a_n6615_1845# a_n7205_1795# a_n6705_1845# VSSA sky130_fd_pr__nfet_g5v0d10v5 ad=0p pd=0u as=4e+11p ps=2.8e+06u w=1e+06u l=500000u
X246 YM N1 a_n6975_50# VSSA sky130_fd_pr__nfet_g5v0d10v5 ad=0p pd=0u as=4e+11p ps=2.8e+06u w=1e+06u l=500000u
X247 YM INM X VDDA sky130_fd_pr__pfet_g5v0d10v5 ad=0p pd=0u as=0p ps=0u w=1e+06u l=500000u
X248 a_n11025_1065# a_n11525_1050# a_n11525_1050# VDDA sky130_fd_pr__pfet_g5v0d10v5 ad=0p pd=0u as=0p ps=0u w=1e+06u l=500000u
X249 a_n2295_50# N1 a_n2385_50# VSSA sky130_fd_pr__nfet_g5v0d10v5 ad=0p pd=0u as=4e+11p ps=2.8e+06u w=1e+06u l=500000u