* NGSPICE file created from user_analog_project_wrapper.ext - technology: sky130A

.subckt ota VDDA VSSA P1 P2 N2 N1 INP INM OUT
X0 YM INM X VDDA sky130_fd_pr__pfet_g5v0d10v5 ad=2.4e+12p pd=3.36e+07u as=5.2e+12p ps=7.28e+07u w=1e+06u l=500000u
X1 a_n1395_50# N2 OUT VSSA sky130_fd_pr__nfet_g5v0d10v5 ad=1e+11p pd=1.4e+06u as=6e+11p ps=8.4e+06u w=1e+06u l=500000u
X2 a_n5805_50# a_n6485_35# a_n5895_50# VSSA sky130_fd_pr__nfet_g5v0d10v5 ad=1e+11p pd=1.4e+06u as=1e+11p ps=1.4e+06u w=1e+06u l=500000u
X3 a_n8055_1845# N1 a_n8145_1845# VSSA sky130_fd_pr__nfet_g5v0d10v5 ad=1e+11p pd=1.4e+06u as=1e+11p ps=1.4e+06u w=1e+06u l=500000u
X4 YP INP X VDDA sky130_fd_pr__pfet_g5v0d10v5 ad=2.4e+12p pd=3.36e+07u as=0p ps=0u w=1e+06u l=500000u
X5 OUT a_n6485_35# a_n4455_50# VSSA sky130_fd_pr__nfet_g5v0d10v5 ad=0p pd=0u as=1e+11p ps=1.4e+06u w=1e+06u l=500000u
X6 a_n1575_830# P2 a_n1665_830# VDDA sky130_fd_pr__pfet_g5v0d10v5 ad=1e+11p pd=1.4e+06u as=1e+11p ps=1.4e+06u w=1e+06u l=500000u
X7 a_n9225_1065# Z a_n9315_1065# VDDA sky130_fd_pr__pfet_g5v0d10v5 ad=1e+11p pd=1.4e+06u as=1e+11p ps=1.4e+06u w=1e+06u l=500000u
X8 a_n9585_50# a_n10085_35# a_n9675_50# VSSA sky130_fd_pr__nfet_g5v0d10v5 ad=1e+11p pd=1.4e+06u as=1e+11p ps=1.4e+06u w=1e+06u l=500000u
X9 VDDA P1 a_n7335_830# VDDA sky130_fd_pr__pfet_g5v0d10v5 ad=1.4e+12p pd=1.96e+07u as=1e+11p ps=1.4e+06u w=1e+06u l=500000u
X10 a_n11525_1795# a_n11525_1795# a_n11385_1845# VSSA sky130_fd_pr__nfet_g5v0d10v5 ad=2e+11p pd=2.8e+06u as=1e+11p ps=1.4e+06u w=1e+06u l=500000u
X11 a_n5895_1845# a_n7205_1795# a_n5985_1845# VSSA sky130_fd_pr__nfet_g5v0d10v5 ad=1e+11p pd=1.4e+06u as=1e+11p ps=1.4e+06u w=1e+06u l=500000u
X12 a_n725_35# a_n725_35# a_n405_50# VSSA sky130_fd_pr__nfet_g5v0d10v5 ad=2e+11p pd=2.8e+06u as=1e+11p ps=1.4e+06u w=1e+06u l=500000u
X13 a_n1395_1065# P2 X VDDA sky130_fd_pr__pfet_g5v0d10v5 ad=1e+11p pd=1.4e+06u as=0p ps=0u w=1e+06u l=500000u
X14 a_n4995_1845# N2 OUT VSSA sky130_fd_pr__nfet_g5v0d10v5 ad=1e+11p pd=1.4e+06u as=0p ps=0u w=1e+06u l=500000u
X15 a_n725_1050# a_n725_1050# a_n585_1065# VDDA sky130_fd_pr__pfet_g5v0d10v5 ad=2e+11p pd=2.8e+06u as=1e+11p ps=1.4e+06u w=1e+06u l=500000u
X16 a_n10215_830# P2 a_n10305_830# VDDA sky130_fd_pr__pfet_g5v0d10v5 ad=1e+11p pd=1.4e+06u as=1e+11p ps=1.4e+06u w=1e+06u l=500000u
X17 a_n11205_50# a_n11525_35# a_n11525_35# VSSA sky130_fd_pr__nfet_g5v0d10v5 ad=1e+11p pd=1.4e+06u as=2e+11p ps=2.8e+06u w=1e+06u l=500000u
X18 X INM YM VDDA sky130_fd_pr__pfet_g5v0d10v5 ad=0p pd=0u as=0p ps=0u w=1e+06u l=500000u
X19 a_n3195_1845# a_n3605_1795# a_n3285_1845# VSSA sky130_fd_pr__nfet_g5v0d10v5 ad=1e+11p pd=1.4e+06u as=1e+11p ps=1.4e+06u w=1e+06u l=500000u
X20 VSSA N1 a_n855_50# VSSA sky130_fd_pr__nfet_g5v0d10v5 ad=1.4e+12p pd=1.96e+07u as=1e+11p ps=1.4e+06u w=1e+06u l=500000u
X21 a_n2115_830# Z VDDA VDDA sky130_fd_pr__pfet_g5v0d10v5 ad=1e+11p pd=1.4e+06u as=0p ps=0u w=1e+06u l=500000u
X22 a_n9765_1065# P2 a_n9855_1065# VDDA sky130_fd_pr__pfet_g5v0d10v5 ad=1e+11p pd=1.4e+06u as=1e+11p ps=1.4e+06u w=1e+06u l=500000u
X23 a_n1935_50# N1 a_n2025_50# VSSA sky130_fd_pr__nfet_g5v0d10v5 ad=1e+11p pd=1.4e+06u as=1e+11p ps=1.4e+06u w=1e+06u l=500000u
X24 VDDA a_n725_780# a_n135_830# VDDA sky130_fd_pr__pfet_g5v0d10v5 ad=0p pd=0u as=1e+11p ps=1.4e+06u w=1e+06u l=500000u
X25 VSSA N1 a_n855_1845# VSSA sky130_fd_pr__nfet_g5v0d10v5 ad=0p pd=0u as=1e+11p ps=1.4e+06u w=1e+06u l=500000u
X26 a_n7785_830# P2 a_n7875_830# VDDA sky130_fd_pr__pfet_g5v0d10v5 ad=1e+11p pd=1.4e+06u as=1e+11p ps=1.4e+06u w=1e+06u l=500000u
X27 a_n5985_50# a_n6485_35# a_n6075_50# VSSA sky130_fd_pr__nfet_g5v0d10v5 ad=1e+11p pd=1.4e+06u as=1e+11p ps=1.4e+06u w=1e+06u l=500000u
X28 a_n6435_1845# a_n7205_1795# a_n6525_1845# VSSA sky130_fd_pr__nfet_g5v0d10v5 ad=1e+11p pd=1.4e+06u as=1e+11p ps=1.4e+06u w=1e+06u l=500000u
X29 YP INP X VDDA sky130_fd_pr__pfet_g5v0d10v5 ad=0p pd=0u as=0p ps=0u w=1e+06u l=500000u
X30 a_n5535_1845# a_n7205_1795# a_n5625_1845# VSSA sky130_fd_pr__nfet_g5v0d10v5 ad=1e+11p pd=1.4e+06u as=1e+11p ps=1.4e+06u w=1e+06u l=500000u
X31 a_n10755_830# P1 VDDA VDDA sky130_fd_pr__pfet_g5v0d10v5 ad=1e+11p pd=1.4e+06u as=0p ps=0u w=1e+06u l=500000u
X32 a_n1035_1065# P1 a_n1125_1065# VDDA sky130_fd_pr__pfet_g5v0d10v5 ad=1e+11p pd=1.4e+06u as=1e+11p ps=1.4e+06u w=1e+06u l=500000u
X33 YM INM X VDDA sky130_fd_pr__pfet_g5v0d10v5 ad=0p pd=0u as=0p ps=0u w=1e+06u l=500000u
X34 a_n4905_50# a_n6485_35# a_n4995_50# VSSA sky130_fd_pr__nfet_g5v0d10v5 ad=1e+11p pd=1.4e+06u as=1e+11p ps=1.4e+06u w=1e+06u l=500000u
X35 a_n4545_50# a_n6485_35# a_n4635_50# VSSA sky130_fd_pr__nfet_g5v0d10v5 ad=1e+11p pd=1.4e+06u as=1e+11p ps=1.4e+06u w=1e+06u l=500000u
X36 a_n3735_1845# N2 a_n3825_1845# VSSA sky130_fd_pr__nfet_g5v0d10v5 ad=1e+11p pd=1.4e+06u as=1e+11p ps=1.4e+06u w=1e+06u l=500000u
X37 a_n8955_50# a_n10085_35# a_n10085_35# VSSA sky130_fd_pr__nfet_g5v0d10v5 ad=1e+11p pd=1.4e+06u as=1e+11p ps=1.4e+06u w=1e+06u l=500000u
X38 a_n2655_830# P2 a_n2745_830# VDDA sky130_fd_pr__pfet_g5v0d10v5 ad=1e+11p pd=1.4e+06u as=1e+11p ps=1.4e+06u w=1e+06u l=500000u
X39 a_n1305_1845# N2 a_n1395_1845# VSSA sky130_fd_pr__nfet_g5v0d10v5 ad=1e+11p pd=1.4e+06u as=1e+11p ps=1.4e+06u w=1e+06u l=500000u
X40 X INP YP VDDA sky130_fd_pr__pfet_g5v0d10v5 ad=0p pd=0u as=0p ps=0u w=1e+06u l=500000u
X41 a_n11475_1845# a_n11525_1795# VSSA VSSA sky130_fd_pr__nfet_g5v0d10v5 ad=1e+11p pd=1.4e+06u as=0p ps=0u w=1e+06u l=500000u
X42 a_n6075_1845# a_n7205_1795# a_n7205_1795# VSSA sky130_fd_pr__nfet_g5v0d10v5 ad=1e+11p pd=1.4e+06u as=1e+11p ps=1.4e+06u w=1e+06u l=500000u
X43 YP INP X VDDA sky130_fd_pr__pfet_g5v0d10v5 ad=0p pd=0u as=0p ps=0u w=1e+06u l=500000u
X44 X P2 a_n7335_1065# VDDA sky130_fd_pr__pfet_g5v0d10v5 ad=0p pd=0u as=1e+11p ps=1.4e+06u w=1e+06u l=500000u
X45 a_n1305_50# N2 a_n1395_50# VSSA sky130_fd_pr__nfet_g5v0d10v5 ad=1e+11p pd=1.4e+06u as=0p ps=0u w=1e+06u l=500000u
X46 a_n4275_1845# N1 VSSA VSSA sky130_fd_pr__nfet_g5v0d10v5 ad=1e+11p pd=1.4e+06u as=0p ps=0u w=1e+06u l=500000u
X47 a_n9945_1845# N2 a_n10035_1845# VSSA sky130_fd_pr__nfet_g5v0d10v5 ad=1e+11p pd=1.4e+06u as=1e+11p ps=1.4e+06u w=1e+06u l=500000u
X48 a_n7695_50# N2 a_n7785_50# VSSA sky130_fd_pr__nfet_g5v0d10v5 ad=1e+11p pd=1.4e+06u as=1e+11p ps=1.4e+06u w=1e+06u l=500000u
X49 OUT N2 a_n6615_50# VSSA sky130_fd_pr__nfet_g5v0d10v5 ad=0p pd=0u as=1e+11p ps=1.4e+06u w=1e+06u l=500000u
X50 a_n10215_1065# P2 a_n10305_1065# VDDA sky130_fd_pr__pfet_g5v0d10v5 ad=1e+11p pd=1.4e+06u as=1e+11p ps=1.4e+06u w=1e+06u l=500000u
X51 YP N1 a_n9135_1845# VSSA sky130_fd_pr__nfet_g5v0d10v5 ad=8e+11p pd=1.12e+07u as=1e+11p ps=1.4e+06u w=1e+06u l=500000u
X52 a_n4545_1065# P1 a_n4635_1065# VDDA sky130_fd_pr__pfet_g5v0d10v5 ad=1e+11p pd=1.4e+06u as=1e+11p ps=1.4e+06u w=1e+06u l=500000u
X53 X INP YP VDDA sky130_fd_pr__pfet_g5v0d10v5 ad=0p pd=0u as=0p ps=0u w=1e+06u l=500000u
X54 X INP YP VDDA sky130_fd_pr__pfet_g5v0d10v5 ad=0p pd=0u as=0p ps=0u w=1e+06u l=500000u
X55 a_n6615_1845# a_n7205_1795# a_n6705_1845# VSSA sky130_fd_pr__nfet_g5v0d10v5 ad=1e+11p pd=1.4e+06u as=1e+11p ps=1.4e+06u w=1e+06u l=500000u
X56 YP INP X VDDA sky130_fd_pr__pfet_g5v0d10v5 ad=0p pd=0u as=0p ps=0u w=1e+06u l=500000u
X57 VDDA a_n725_1050# a_n135_1065# VDDA sky130_fd_pr__pfet_g5v0d10v5 ad=0p pd=0u as=1e+11p ps=1.4e+06u w=1e+06u l=500000u
X58 a_n7785_1065# P1 a_n7875_1065# VDDA sky130_fd_pr__pfet_g5v0d10v5 ad=1e+11p pd=1.4e+06u as=1e+11p ps=1.4e+06u w=1e+06u l=500000u
X59 a_n4815_1845# N2 a_n4905_1845# VSSA sky130_fd_pr__nfet_g5v0d10v5 ad=1e+11p pd=1.4e+06u as=1e+11p ps=1.4e+06u w=1e+06u l=500000u
X60 YM INM X VDDA sky130_fd_pr__pfet_g5v0d10v5 ad=0p pd=0u as=0p ps=0u w=1e+06u l=500000u
X61 a_n10755_1065# Z VDDA VDDA sky130_fd_pr__pfet_g5v0d10v5 ad=1e+11p pd=1.4e+06u as=0p ps=0u w=1e+06u l=500000u
X62 a_n9585_1845# N1 a_n9675_1845# VSSA sky130_fd_pr__nfet_g5v0d10v5 ad=1e+11p pd=1.4e+06u as=1e+11p ps=1.4e+06u w=1e+06u l=500000u
X63 X INP YP VDDA sky130_fd_pr__pfet_g5v0d10v5 ad=0p pd=0u as=0p ps=0u w=1e+06u l=500000u
X64 a_n725_1795# a_n725_1795# a_n405_1845# VSSA sky130_fd_pr__nfet_g5v0d10v5 ad=2e+11p pd=2.8e+06u as=1e+11p ps=1.4e+06u w=1e+06u l=500000u
X65 X INP YP VDDA sky130_fd_pr__pfet_g5v0d10v5 ad=0p pd=0u as=0p ps=0u w=1e+06u l=500000u
X66 OUT N2 a_n1575_50# VSSA sky130_fd_pr__nfet_g5v0d10v5 ad=0p pd=0u as=1e+11p ps=1.4e+06u w=1e+06u l=500000u
X67 a_n7155_1845# a_n7205_1795# OUT VSSA sky130_fd_pr__nfet_g5v0d10v5 ad=1e+11p pd=1.4e+06u as=0p ps=0u w=1e+06u l=500000u
X68 YP INP X VDDA sky130_fd_pr__pfet_g5v0d10v5 ad=0p pd=0u as=0p ps=0u w=1e+06u l=500000u
X69 a_n7065_50# N1 a_n7155_50# VSSA sky130_fd_pr__nfet_g5v0d10v5 ad=1e+11p pd=1.4e+06u as=1e+11p ps=1.4e+06u w=1e+06u l=500000u
X70 a_n8235_50# a_n10085_35# a_n8325_50# VSSA sky130_fd_pr__nfet_g5v0d10v5 ad=1e+11p pd=1.4e+06u as=1e+11p ps=1.4e+06u w=1e+06u l=500000u
X71 a_n675_830# a_n725_780# VDDA VDDA sky130_fd_pr__pfet_g5v0d10v5 ad=1e+11p pd=1.4e+06u as=0p ps=0u w=1e+06u l=500000u
X72 a_n8325_1065# P2 a_n8415_1065# VDDA sky130_fd_pr__pfet_g5v0d10v5 ad=1e+11p pd=1.4e+06u as=1e+11p ps=1.4e+06u w=1e+06u l=500000u
X73 X INM YM VDDA sky130_fd_pr__pfet_g5v0d10v5 ad=0p pd=0u as=0p ps=0u w=1e+06u l=500000u
X74 a_n10395_1845# N2 YM VSSA sky130_fd_pr__nfet_g5v0d10v5 ad=1e+11p pd=1.4e+06u as=8e+11p ps=1.12e+07u w=1e+06u l=500000u
X75 a_n4455_50# a_n6485_35# a_n4545_50# VSSA sky130_fd_pr__nfet_g5v0d10v5 ad=0p pd=0u as=0p ps=0u w=1e+06u l=500000u
X76 a_n4455_1845# N1 a_n4545_1845# VSSA sky130_fd_pr__nfet_g5v0d10v5 ad=1e+11p pd=1.4e+06u as=1e+11p ps=1.4e+06u w=1e+06u l=500000u
X77 VDDA P1 a_n3735_830# VDDA sky130_fd_pr__pfet_g5v0d10v5 ad=0p pd=0u as=1e+11p ps=1.4e+06u w=1e+06u l=500000u
X78 a_n2295_1845# a_n3605_1795# a_n2385_1845# VSSA sky130_fd_pr__nfet_g5v0d10v5 ad=1e+11p pd=1.4e+06u as=1e+11p ps=1.4e+06u w=1e+06u l=500000u
X79 a_n8865_1065# P2 a_n8955_1065# VDDA sky130_fd_pr__pfet_g5v0d10v5 ad=1e+11p pd=1.4e+06u as=1e+11p ps=1.4e+06u w=1e+06u l=500000u
X80 a_n1215_830# P2 a_n1305_830# VDDA sky130_fd_pr__pfet_g5v0d10v5 ad=1e+11p pd=1.4e+06u as=1e+11p ps=1.4e+06u w=1e+06u l=500000u
X81 VDDA Z a_n8055_1065# VDDA sky130_fd_pr__pfet_g5v0d10v5 ad=0p pd=0u as=1e+11p ps=1.4e+06u w=1e+06u l=500000u
X82 a_n6885_830# P1 a_n6975_830# VDDA sky130_fd_pr__pfet_g5v0d10v5 ad=1e+11p pd=1.4e+06u as=1e+11p ps=1.4e+06u w=1e+06u l=500000u
X83 a_n10935_1845# a_n11525_1795# a_n11025_1845# VSSA sky130_fd_pr__nfet_g5v0d10v5 ad=1e+11p pd=1.4e+06u as=1e+11p ps=1.4e+06u w=1e+06u l=500000u
X84 X INM YM VDDA sky130_fd_pr__pfet_g5v0d10v5 ad=0p pd=0u as=0p ps=0u w=1e+06u l=500000u
X85 a_n10035_1845# N2 OUT VSSA sky130_fd_pr__nfet_g5v0d10v5 ad=0p pd=0u as=0p ps=0u w=1e+06u l=500000u
X86 a_n2025_50# N1 a_n2115_50# VSSA sky130_fd_pr__nfet_g5v0d10v5 ad=0p pd=0u as=1e+11p ps=1.4e+06u w=1e+06u l=500000u
X87 a_n3195_50# N2 YP VSSA sky130_fd_pr__nfet_g5v0d10v5 ad=1e+11p pd=1.4e+06u as=0p ps=0u w=1e+06u l=500000u
X88 YP N2 a_n7695_50# VSSA sky130_fd_pr__nfet_g5v0d10v5 ad=0p pd=0u as=0p ps=0u w=1e+06u l=500000u
X89 a_n8775_50# a_n10085_35# a_n8865_50# VSSA sky130_fd_pr__nfet_g5v0d10v5 ad=1e+11p pd=1.4e+06u as=1e+11p ps=1.4e+06u w=1e+06u l=500000u
X90 a_n4185_830# P2 a_n4275_830# VDDA sky130_fd_pr__pfet_g5v0d10v5 ad=1e+11p pd=1.4e+06u as=1e+11p ps=1.4e+06u w=1e+06u l=500000u
X91 a_n9945_50# a_n10085_35# a_n10035_50# VSSA sky130_fd_pr__nfet_g5v0d10v5 ad=1e+11p pd=1.4e+06u as=1e+11p ps=1.4e+06u w=1e+06u l=500000u
X92 a_n2835_1845# a_n3605_1795# a_n2925_1845# VSSA sky130_fd_pr__nfet_g5v0d10v5 ad=1e+11p pd=1.4e+06u as=1e+11p ps=1.4e+06u w=1e+06u l=500000u
X93 a_n1755_830# P2 a_n1845_830# VDDA sky130_fd_pr__pfet_g5v0d10v5 ad=1e+11p pd=1.4e+06u as=1e+11p ps=1.4e+06u w=1e+06u l=500000u
X94 VDDA Z a_n9495_1065# VDDA sky130_fd_pr__pfet_g5v0d10v5 ad=0p pd=0u as=1e+11p ps=1.4e+06u w=1e+06u l=500000u
X95 a_n10035_50# a_n10085_35# Z VSSA sky130_fd_pr__nfet_g5v0d10v5 ad=0p pd=0u as=6e+11p ps=8.4e+06u w=1e+06u l=500000u
X96 a_n8505_1065# P2 a_n8595_1065# VDDA sky130_fd_pr__pfet_g5v0d10v5 ad=1e+11p pd=1.4e+06u as=1e+11p ps=1.4e+06u w=1e+06u l=500000u
X97 a_n7425_830# P1 a_n7515_830# VDDA sky130_fd_pr__pfet_g5v0d10v5 ad=1e+11p pd=1.4e+06u as=1e+11p ps=1.4e+06u w=1e+06u l=500000u
X98 X P2 a_n6615_830# VDDA sky130_fd_pr__pfet_g5v0d10v5 ad=0p pd=0u as=1e+11p ps=1.4e+06u w=1e+06u l=500000u
X99 a_n10575_1845# N1 a_n10665_1845# VSSA sky130_fd_pr__nfet_g5v0d10v5 ad=1e+11p pd=1.4e+06u as=1e+11p ps=1.4e+06u w=1e+06u l=500000u
X100 a_n5175_1845# a_n7205_1795# a_n5265_1845# VSSA sky130_fd_pr__nfet_g5v0d10v5 ad=1e+11p pd=1.4e+06u as=1e+11p ps=1.4e+06u w=1e+06u l=500000u
X101 a_n675_1065# a_n725_1050# VDDA VDDA sky130_fd_pr__pfet_g5v0d10v5 ad=1e+11p pd=1.4e+06u as=0p ps=0u w=1e+06u l=500000u
X102 X INM YM VDDA sky130_fd_pr__pfet_g5v0d10v5 ad=0p pd=0u as=0p ps=0u w=1e+06u l=500000u
X103 X INM YM VDDA sky130_fd_pr__pfet_g5v0d10v5 ad=0p pd=0u as=0p ps=0u w=1e+06u l=500000u
X104 a_n3375_1845# a_n3605_1795# a_n3465_1845# VSSA sky130_fd_pr__nfet_g5v0d10v5 ad=1e+11p pd=1.4e+06u as=1e+11p ps=1.4e+06u w=1e+06u l=500000u
X105 a_n5175_50# a_n6485_35# a_n5265_50# VSSA sky130_fd_pr__nfet_g5v0d10v5 ad=1e+11p pd=1.4e+06u as=1e+11p ps=1.4e+06u w=1e+06u l=500000u
X106 a_n6345_50# a_n6485_35# a_n6435_50# VSSA sky130_fd_pr__nfet_g5v0d10v5 ad=1e+11p pd=1.4e+06u as=1e+11p ps=1.4e+06u w=1e+06u l=500000u
X107 a_n2475_1845# a_n3605_1795# a_n3605_1795# VSSA sky130_fd_pr__nfet_g5v0d10v5 ad=1e+11p pd=1.4e+06u as=1e+11p ps=1.4e+06u w=1e+06u l=500000u
X108 YP INP X VDDA sky130_fd_pr__pfet_g5v0d10v5 ad=0p pd=0u as=0p ps=0u w=1e+06u l=500000u
X109 a_n8145_1845# N1 a_n8235_1845# VSSA sky130_fd_pr__nfet_g5v0d10v5 ad=0p pd=0u as=1e+11p ps=1.4e+06u w=1e+06u l=500000u
X110 YP N2 a_n2655_50# VSSA sky130_fd_pr__nfet_g5v0d10v5 ad=0p pd=0u as=1e+11p ps=1.4e+06u w=1e+06u l=500000u
X111 X P2 a_n3735_1065# VDDA sky130_fd_pr__pfet_g5v0d10v5 ad=0p pd=0u as=1e+11p ps=1.4e+06u w=1e+06u l=500000u
X112 a_n3735_50# N1 a_n3825_50# VSSA sky130_fd_pr__nfet_g5v0d10v5 ad=1e+11p pd=1.4e+06u as=1e+11p ps=1.4e+06u w=1e+06u l=500000u
X113 a_n225_830# a_n725_780# a_n725_780# VDDA sky130_fd_pr__pfet_g5v0d10v5 ad=1e+11p pd=1.4e+06u as=2e+11p ps=2.8e+06u w=1e+06u l=500000u
X114 a_n7065_830# P1 a_n7155_830# VDDA sky130_fd_pr__pfet_g5v0d10v5 ad=1e+11p pd=1.4e+06u as=1e+11p ps=1.4e+06u w=1e+06u l=500000u
X115 a_n11525_1795# a_n11525_1795# a_n11205_1845# VSSA sky130_fd_pr__nfet_g5v0d10v5 ad=0p pd=0u as=1e+11p ps=1.4e+06u w=1e+06u l=500000u
X116 a_n9315_50# a_n10085_35# a_n9405_50# VSSA sky130_fd_pr__nfet_g5v0d10v5 ad=1e+11p pd=1.4e+06u as=1e+11p ps=1.4e+06u w=1e+06u l=500000u
X117 a_n5715_1845# a_n7205_1795# a_n5805_1845# VSSA sky130_fd_pr__nfet_g5v0d10v5 ad=1e+11p pd=1.4e+06u as=1e+11p ps=1.4e+06u w=1e+06u l=500000u
X118 a_n1215_1065# P2 a_n1305_1065# VDDA sky130_fd_pr__pfet_g5v0d10v5 ad=1e+11p pd=1.4e+06u as=1e+11p ps=1.4e+06u w=1e+06u l=500000u
X119 X INM YM VDDA sky130_fd_pr__pfet_g5v0d10v5 ad=0p pd=0u as=0p ps=0u w=1e+06u l=500000u
X120 X INM YM VDDA sky130_fd_pr__pfet_g5v0d10v5 ad=0p pd=0u as=0p ps=0u w=1e+06u l=500000u
X121 a_n3915_1845# N2 YP VSSA sky130_fd_pr__nfet_g5v0d10v5 ad=1e+11p pd=1.4e+06u as=0p ps=0u w=1e+06u l=500000u
X122 a_n10575_50# N1 a_n10665_50# VSSA sky130_fd_pr__nfet_g5v0d10v5 ad=1e+11p pd=1.4e+06u as=1e+11p ps=1.4e+06u w=1e+06u l=500000u
X123 a_n3015_1845# a_n3605_1795# a_n3105_1845# VSSA sky130_fd_pr__nfet_g5v0d10v5 ad=1e+11p pd=1.4e+06u as=1e+11p ps=1.4e+06u w=1e+06u l=500000u
X124 Z N2 a_n8775_1845# VSSA sky130_fd_pr__nfet_g5v0d10v5 ad=0p pd=0u as=1e+11p ps=1.4e+06u w=1e+06u l=500000u
X125 a_n4185_1065# P1 a_n4275_1065# VDDA sky130_fd_pr__pfet_g5v0d10v5 ad=1e+11p pd=1.4e+06u as=1e+11p ps=1.4e+06u w=1e+06u l=500000u
X126 a_n7605_830# P2 a_n7695_830# VDDA sky130_fd_pr__pfet_g5v0d10v5 ad=1e+11p pd=1.4e+06u as=1e+11p ps=1.4e+06u w=1e+06u l=500000u
X127 a_n6255_1845# a_n7205_1795# a_n6345_1845# VSSA sky130_fd_pr__nfet_g5v0d10v5 ad=1e+11p pd=1.4e+06u as=1e+11p ps=1.4e+06u w=1e+06u l=500000u
X128 YM N1 a_n6975_50# VSSA sky130_fd_pr__nfet_g5v0d10v5 ad=0p pd=0u as=1e+11p ps=1.4e+06u w=1e+06u l=500000u
X129 a_n5715_50# a_n6485_35# a_n5805_50# VSSA sky130_fd_pr__nfet_g5v0d10v5 ad=1e+11p pd=1.4e+06u as=0p ps=0u w=1e+06u l=500000u
X130 YP INP X VDDA sky130_fd_pr__pfet_g5v0d10v5 ad=0p pd=0u as=0p ps=0u w=1e+06u l=500000u
X131 a_n7425_1065# P2 a_n7515_1065# VDDA sky130_fd_pr__pfet_g5v0d10v5 ad=1e+11p pd=1.4e+06u as=1e+11p ps=1.4e+06u w=1e+06u l=500000u
X132 a_n4275_50# N2 OUT VSSA sky130_fd_pr__nfet_g5v0d10v5 ad=1e+11p pd=1.4e+06u as=0p ps=0u w=1e+06u l=500000u
X133 a_n3105_50# N2 a_n3195_50# VSSA sky130_fd_pr__nfet_g5v0d10v5 ad=1e+11p pd=1.4e+06u as=0p ps=0u w=1e+06u l=500000u
X134 VDDA a_n11525_780# a_n10935_830# VDDA sky130_fd_pr__pfet_g5v0d10v5 ad=0p pd=0u as=1e+11p ps=1.4e+06u w=1e+06u l=500000u
X135 X INM YM VDDA sky130_fd_pr__pfet_g5v0d10v5 ad=0p pd=0u as=0p ps=0u w=1e+06u l=500000u
X136 X INM YM VDDA sky130_fd_pr__pfet_g5v0d10v5 ad=0p pd=0u as=0p ps=0u w=1e+06u l=500000u
X137 a_n3555_1845# a_n3605_1795# Z VSSA sky130_fd_pr__nfet_g5v0d10v5 ad=1e+11p pd=1.4e+06u as=0p ps=0u w=1e+06u l=500000u
X138 a_n9495_50# a_n10085_35# a_n9585_50# VSSA sky130_fd_pr__nfet_g5v0d10v5 ad=1e+11p pd=1.4e+06u as=0p ps=0u w=1e+06u l=500000u
X139 a_n9855_50# a_n10085_35# a_n9945_50# VSSA sky130_fd_pr__nfet_g5v0d10v5 ad=1e+11p pd=1.4e+06u as=0p ps=0u w=1e+06u l=500000u
X140 a_n9225_1845# N1 a_n9315_1845# VSSA sky130_fd_pr__nfet_g5v0d10v5 ad=1e+11p pd=1.4e+06u as=1e+11p ps=1.4e+06u w=1e+06u l=500000u
X141 a_n225_50# a_n725_35# a_n725_35# VSSA sky130_fd_pr__nfet_g5v0d10v5 ad=1e+11p pd=1.4e+06u as=0p ps=0u w=1e+06u l=500000u
X142 a_n4725_1065# P2 a_n4815_1065# VDDA sky130_fd_pr__pfet_g5v0d10v5 ad=1e+11p pd=1.4e+06u as=1e+11p ps=1.4e+06u w=1e+06u l=500000u
X143 a_n2745_830# P2 a_n2835_830# VDDA sky130_fd_pr__pfet_g5v0d10v5 ad=0p pd=0u as=1e+11p ps=1.4e+06u w=1e+06u l=500000u
X144 a_n9495_1065# Z a_n9585_1065# VDDA sky130_fd_pr__pfet_g5v0d10v5 ad=0p pd=0u as=1e+11p ps=1.4e+06u w=1e+06u l=500000u
X145 a_n1395_1845# N2 Z VSSA sky130_fd_pr__nfet_g5v0d10v5 ad=0p pd=0u as=0p ps=0u w=1e+06u l=500000u
X146 a_n11525_35# a_n11525_35# a_n11205_50# VSSA sky130_fd_pr__nfet_g5v0d10v5 ad=0p pd=0u as=0p ps=0u w=1e+06u l=500000u
X147 a_n725_1795# a_n725_1795# a_n585_1845# VSSA sky130_fd_pr__nfet_g5v0d10v5 ad=0p pd=0u as=1e+11p ps=1.4e+06u w=1e+06u l=500000u
X148 a_n225_1065# a_n725_1050# a_n725_1050# VDDA sky130_fd_pr__pfet_g5v0d10v5 ad=1e+11p pd=1.4e+06u as=0p ps=0u w=1e+06u l=500000u
X149 a_n11385_830# a_n11525_780# a_n11475_830# VDDA sky130_fd_pr__pfet_g5v0d10v5 ad=1e+11p pd=1.4e+06u as=1e+11p ps=1.4e+06u w=1e+06u l=500000u
X150 X INM YM VDDA sky130_fd_pr__pfet_g5v0d10v5 ad=0p pd=0u as=0p ps=0u w=1e+06u l=500000u
X151 a_n10485_830# P1 a_n10575_830# VDDA sky130_fd_pr__pfet_g5v0d10v5 ad=1e+11p pd=1.4e+06u as=1e+11p ps=1.4e+06u w=1e+06u l=500000u
X152 YM N1 a_n1935_50# VSSA sky130_fd_pr__nfet_g5v0d10v5 ad=0p pd=0u as=0p ps=0u w=1e+06u l=500000u
X153 a_n675_50# a_n725_35# VSSA VSSA sky130_fd_pr__nfet_g5v0d10v5 ad=1e+11p pd=1.4e+06u as=0p ps=0u w=1e+06u l=500000u
X154 X INM YM VDDA sky130_fd_pr__pfet_g5v0d10v5 ad=0p pd=0u as=0p ps=0u w=1e+06u l=500000u
X155 YM N2 a_n9855_1845# VSSA sky130_fd_pr__nfet_g5v0d10v5 ad=0p pd=0u as=1e+11p ps=1.4e+06u w=1e+06u l=500000u
X156 a_n6255_50# a_n6485_35# a_n6345_50# VSSA sky130_fd_pr__nfet_g5v0d10v5 ad=1e+11p pd=1.4e+06u as=0p ps=0u w=1e+06u l=500000u
X157 a_n7425_50# N1 a_n7515_50# VSSA sky130_fd_pr__nfet_g5v0d10v5 ad=1e+11p pd=1.4e+06u as=1e+11p ps=1.4e+06u w=1e+06u l=500000u
X158 a_n3285_830# Z a_n3375_830# VDDA sky130_fd_pr__pfet_g5v0d10v5 ad=1e+11p pd=1.4e+06u as=1e+11p ps=1.4e+06u w=1e+06u l=500000u
X159 a_n1935_1845# a_n3605_1795# a_n2025_1845# VSSA sky130_fd_pr__nfet_g5v0d10v5 ad=1e+11p pd=1.4e+06u as=1e+11p ps=1.4e+06u w=1e+06u l=500000u
X160 a_n4815_50# a_n6485_35# a_n4905_50# VSSA sky130_fd_pr__nfet_g5v0d10v5 ad=1e+11p pd=1.4e+06u as=0p ps=0u w=1e+06u l=500000u
X161 a_n1035_1845# N1 YP VSSA sky130_fd_pr__nfet_g5v0d10v5 ad=1e+11p pd=1.4e+06u as=0p ps=0u w=1e+06u l=500000u
X162 a_n855_830# Z a_n945_830# VDDA sky130_fd_pr__pfet_g5v0d10v5 ad=1e+11p pd=1.4e+06u as=1e+11p ps=1.4e+06u w=1e+06u l=500000u
X163 a_n7605_1065# P1 a_n7695_1065# VDDA sky130_fd_pr__pfet_g5v0d10v5 ad=1e+11p pd=1.4e+06u as=1e+11p ps=1.4e+06u w=1e+06u l=500000u
X164 a_n11025_830# a_n11525_780# a_n11525_780# VDDA sky130_fd_pr__pfet_g5v0d10v5 ad=1e+11p pd=1.4e+06u as=2e+11p ps=2.8e+06u w=1e+06u l=500000u
X165 X INM YM VDDA sky130_fd_pr__pfet_g5v0d10v5 ad=0p pd=0u as=0p ps=0u w=1e+06u l=500000u
X166 VDDA a_n11525_1050# a_n10935_1065# VDDA sky130_fd_pr__pfet_g5v0d10v5 ad=0p pd=0u as=1e+11p ps=1.4e+06u w=1e+06u l=500000u
X167 a_n3825_830# P1 a_n3915_830# VDDA sky130_fd_pr__pfet_g5v0d10v5 ad=1e+11p pd=1.4e+06u as=1e+11p ps=1.4e+06u w=1e+06u l=500000u
X168 X INM YM VDDA sky130_fd_pr__pfet_g5v0d10v5 ad=0p pd=0u as=0p ps=0u w=1e+06u l=500000u
X169 a_n1575_1845# a_n3605_1795# a_n1665_1845# VSSA sky130_fd_pr__nfet_g5v0d10v5 ad=1e+11p pd=1.4e+06u as=1e+11p ps=1.4e+06u w=1e+06u l=500000u
X170 a_n1215_50# N2 a_n1305_50# VSSA sky130_fd_pr__nfet_g5v0d10v5 ad=1e+11p pd=1.4e+06u as=0p ps=0u w=1e+06u l=500000u
X171 YP INP X VDDA sky130_fd_pr__pfet_g5v0d10v5 ad=0p pd=0u as=0p ps=0u w=1e+06u l=500000u
X172 a_n2385_50# N1 a_n2475_50# VSSA sky130_fd_pr__nfet_g5v0d10v5 ad=1e+11p pd=1.4e+06u as=1e+11p ps=1.4e+06u w=1e+06u l=500000u
X173 OUT N2 a_n7335_1845# VSSA sky130_fd_pr__nfet_g5v0d10v5 ad=0p pd=0u as=1e+11p ps=1.4e+06u w=1e+06u l=500000u
X174 X INP YP VDDA sky130_fd_pr__pfet_g5v0d10v5 ad=0p pd=0u as=0p ps=0u w=1e+06u l=500000u
X175 X INM YM VDDA sky130_fd_pr__pfet_g5v0d10v5 ad=0p pd=0u as=0p ps=0u w=1e+06u l=500000u
X176 a_n10215_1845# N2 a_n10305_1845# VSSA sky130_fd_pr__nfet_g5v0d10v5 ad=1e+11p pd=1.4e+06u as=1e+11p ps=1.4e+06u w=1e+06u l=500000u
X177 a_n4545_1845# N1 a_n4635_1845# VSSA sky130_fd_pr__nfet_g5v0d10v5 ad=0p pd=0u as=1e+11p ps=1.4e+06u w=1e+06u l=500000u
X178 a_n11385_1065# a_n11525_1050# a_n11475_1065# VDDA sky130_fd_pr__pfet_g5v0d10v5 ad=1e+11p pd=1.4e+06u as=1e+11p ps=1.4e+06u w=1e+06u l=500000u
X179 a_n10395_50# N2 YP VSSA sky130_fd_pr__nfet_g5v0d10v5 ad=1e+11p pd=1.4e+06u as=0p ps=0u w=1e+06u l=500000u
X180 X INM YM VDDA sky130_fd_pr__pfet_g5v0d10v5 ad=0p pd=0u as=0p ps=0u w=1e+06u l=500000u
X181 a_n10485_1065# Z a_n10575_1065# VDDA sky130_fd_pr__pfet_g5v0d10v5 ad=1e+11p pd=1.4e+06u as=1e+11p ps=1.4e+06u w=1e+06u l=500000u
X182 a_n3465_830# Z a_n3555_830# VDDA sky130_fd_pr__pfet_g5v0d10v5 ad=1e+11p pd=1.4e+06u as=1e+11p ps=1.4e+06u w=1e+06u l=500000u
X183 X INM YM VDDA sky130_fd_pr__pfet_g5v0d10v5 ad=0p pd=0u as=0p ps=0u w=1e+06u l=500000u
X184 a_n2115_1845# a_n3605_1795# a_n2205_1845# VSSA sky130_fd_pr__nfet_g5v0d10v5 ad=1e+11p pd=1.4e+06u as=1e+11p ps=1.4e+06u w=1e+06u l=500000u
X185 YP INP X VDDA sky130_fd_pr__pfet_g5v0d10v5 ad=0p pd=0u as=0p ps=0u w=1e+06u l=500000u
X186 a_n7785_1845# N1 a_n7875_1845# VSSA sky130_fd_pr__nfet_g5v0d10v5 ad=1e+11p pd=1.4e+06u as=1e+11p ps=1.4e+06u w=1e+06u l=500000u
X187 VSSA a_n725_1795# a_n135_1845# VSSA sky130_fd_pr__nfet_g5v0d10v5 ad=0p pd=0u as=1e+11p ps=1.4e+06u w=1e+06u l=500000u
X188 X INP YP VDDA sky130_fd_pr__pfet_g5v0d10v5 ad=0p pd=0u as=0p ps=0u w=1e+06u l=500000u
X189 a_n6705_830# P2 a_n6795_830# VDDA sky130_fd_pr__pfet_g5v0d10v5 ad=1e+11p pd=1.4e+06u as=1e+11p ps=1.4e+06u w=1e+06u l=500000u
X190 a_n10755_1845# N1 VSSA VSSA sky130_fd_pr__nfet_g5v0d10v5 ad=1e+11p pd=1.4e+06u as=0p ps=0u w=1e+06u l=500000u
X191 a_n5355_1845# a_n7205_1795# a_n5445_1845# VSSA sky130_fd_pr__nfet_g5v0d10v5 ad=1e+11p pd=1.4e+06u as=1e+11p ps=1.4e+06u w=1e+06u l=500000u
X192 a_n855_1065# P1 a_n945_1065# VDDA sky130_fd_pr__pfet_g5v0d10v5 ad=1e+11p pd=1.4e+06u as=1e+11p ps=1.4e+06u w=1e+06u l=500000u
X193 a_n1755_50# N2 YM VSSA sky130_fd_pr__nfet_g5v0d10v5 ad=1e+11p pd=1.4e+06u as=0p ps=0u w=1e+06u l=500000u
X194 Z N2 a_n3015_50# VSSA sky130_fd_pr__nfet_g5v0d10v5 ad=0p pd=0u as=1e+11p ps=1.4e+06u w=1e+06u l=500000u
X195 X INM YM VDDA sky130_fd_pr__pfet_g5v0d10v5 ad=0p pd=0u as=0p ps=0u w=1e+06u l=500000u
X196 X INM YM VDDA sky130_fd_pr__pfet_g5v0d10v5 ad=0p pd=0u as=0p ps=0u w=1e+06u l=500000u
X197 a_n11025_1065# a_n11525_1050# a_n11525_1050# VDDA sky130_fd_pr__pfet_g5v0d10v5 ad=1e+11p pd=1.4e+06u as=2e+11p ps=2.8e+06u w=1e+06u l=500000u
X198 a_n6975_50# N1 a_n7065_50# VSSA sky130_fd_pr__nfet_g5v0d10v5 ad=0p pd=0u as=0p ps=0u w=1e+06u l=500000u
X199 a_n4005_830# P2 a_n4095_830# VDDA sky130_fd_pr__pfet_g5v0d10v5 ad=1e+11p pd=1.4e+06u as=1e+11p ps=1.4e+06u w=1e+06u l=500000u
X200 a_n8145_50# a_n10085_35# a_n8235_50# VSSA sky130_fd_pr__nfet_g5v0d10v5 ad=1e+11p pd=1.4e+06u as=0p ps=0u w=1e+06u l=500000u
X201 a_n2655_1845# a_n3605_1795# a_n2745_1845# VSSA sky130_fd_pr__nfet_g5v0d10v5 ad=1e+11p pd=1.4e+06u as=1e+11p ps=1.4e+06u w=1e+06u l=500000u
X202 YP INP X VDDA sky130_fd_pr__pfet_g5v0d10v5 ad=0p pd=0u as=0p ps=0u w=1e+06u l=500000u
X203 YP N2 a_n8415_1845# VSSA sky130_fd_pr__nfet_g5v0d10v5 ad=0p pd=0u as=1e+11p ps=1.4e+06u w=1e+06u l=500000u
X204 a_n3825_1065# P2 a_n3915_1065# VDDA sky130_fd_pr__pfet_g5v0d10v5 ad=1e+11p pd=1.4e+06u as=1e+11p ps=1.4e+06u w=1e+06u l=500000u
X205 a_n405_830# a_n725_780# a_n725_780# VDDA sky130_fd_pr__pfet_g5v0d10v5 ad=1e+11p pd=1.4e+06u as=0p ps=0u w=1e+06u l=500000u
X206 a_n1845_830# Z a_n1935_830# VDDA sky130_fd_pr__pfet_g5v0d10v5 ad=0p pd=0u as=1e+11p ps=1.4e+06u w=1e+06u l=500000u
X207 a_n10935_50# a_n11525_35# a_n11025_50# VSSA sky130_fd_pr__nfet_g5v0d10v5 ad=1e+11p pd=1.4e+06u as=1e+11p ps=1.4e+06u w=1e+06u l=500000u
X208 a_n8595_1065# P2 Z VDDA sky130_fd_pr__pfet_g5v0d10v5 ad=0p pd=0u as=2e+11p ps=2.8e+06u w=1e+06u l=500000u
X209 X INM YM VDDA sky130_fd_pr__pfet_g5v0d10v5 ad=0p pd=0u as=0p ps=0u w=1e+06u l=500000u
X210 a_n8865_1845# N2 a_n8955_1845# VSSA sky130_fd_pr__nfet_g5v0d10v5 ad=1e+11p pd=1.4e+06u as=1e+11p ps=1.4e+06u w=1e+06u l=500000u
X211 VDDA P1 a_n4455_1065# VDDA sky130_fd_pr__pfet_g5v0d10v5 ad=0p pd=0u as=1e+11p ps=1.4e+06u w=1e+06u l=500000u
X212 VSSA N1 a_n8055_1845# VSSA sky130_fd_pr__nfet_g5v0d10v5 ad=0p pd=0u as=0p ps=0u w=1e+06u l=500000u
X213 X INP YP VDDA sky130_fd_pr__pfet_g5v0d10v5 ad=0p pd=0u as=0p ps=0u w=1e+06u l=500000u
X214 a_n2385_830# Z a_n2475_830# VDDA sky130_fd_pr__pfet_g5v0d10v5 ad=1e+11p pd=1.4e+06u as=1e+11p ps=1.4e+06u w=1e+06u l=500000u
X215 a_n9135_1065# Z a_n9225_1065# VDDA sky130_fd_pr__pfet_g5v0d10v5 ad=1e+11p pd=1.4e+06u as=0p ps=0u w=1e+06u l=500000u
X216 a_n7515_50# N1 YP VSSA sky130_fd_pr__nfet_g5v0d10v5 ad=0p pd=0u as=0p ps=0u w=1e+06u l=500000u
X217 OUT P2 a_n1575_830# VDDA sky130_fd_pr__pfet_g5v0d10v5 ad=2e+11p pd=2.8e+06u as=0p ps=0u w=1e+06u l=500000u
X218 a_n8685_50# a_n10085_35# a_n8775_50# VSSA sky130_fd_pr__nfet_g5v0d10v5 ad=1e+11p pd=1.4e+06u as=0p ps=0u w=1e+06u l=500000u
X219 X INM YM VDDA sky130_fd_pr__pfet_g5v0d10v5 ad=0p pd=0u as=0p ps=0u w=1e+06u l=500000u
X220 X P2 a_n10215_830# VDDA sky130_fd_pr__pfet_g5v0d10v5 ad=0p pd=0u as=0p ps=0u w=1e+06u l=500000u
X221 a_n10305_50# N2 a_n10395_50# VSSA sky130_fd_pr__nfet_g5v0d10v5 ad=1e+11p pd=1.4e+06u as=0p ps=0u w=1e+06u l=500000u
X222 VSSA N1 a_n9495_1845# VSSA sky130_fd_pr__nfet_g5v0d10v5 ad=0p pd=0u as=1e+11p ps=1.4e+06u w=1e+06u l=500000u
X223 a_n4905_1065# P2 a_n4995_1065# VDDA sky130_fd_pr__pfet_g5v0d10v5 ad=1e+11p pd=1.4e+06u as=1e+11p ps=1.4e+06u w=1e+06u l=500000u
X224 a_n8505_1845# N2 a_n8595_1845# VSSA sky130_fd_pr__nfet_g5v0d10v5 ad=1e+11p pd=1.4e+06u as=1e+11p ps=1.4e+06u w=1e+06u l=500000u
X225 a_n4005_1065# P1 a_n4095_1065# VDDA sky130_fd_pr__pfet_g5v0d10v5 ad=1e+11p pd=1.4e+06u as=1e+11p ps=1.4e+06u w=1e+06u l=500000u
X226 Z P2 a_n3015_830# VDDA sky130_fd_pr__pfet_g5v0d10v5 ad=0p pd=0u as=1e+11p ps=1.4e+06u w=1e+06u l=500000u
X227 a_n2025_830# Z a_n2115_830# VDDA sky130_fd_pr__pfet_g5v0d10v5 ad=1e+11p pd=1.4e+06u as=0p ps=0u w=1e+06u l=500000u
X228 a_n9675_1065# Z a_n9765_1065# VDDA sky130_fd_pr__pfet_g5v0d10v5 ad=1e+11p pd=1.4e+06u as=0p ps=0u w=1e+06u l=500000u
X229 a_n675_1845# a_n725_1795# VSSA VSSA sky130_fd_pr__nfet_g5v0d10v5 ad=1e+11p pd=1.4e+06u as=0p ps=0u w=1e+06u l=500000u
X230 a_n7695_830# P2 a_n7785_830# VDDA sky130_fd_pr__pfet_g5v0d10v5 ad=0p pd=0u as=0p ps=0u w=1e+06u l=500000u
X231 a_n5085_50# a_n6485_35# a_n5175_50# VSSA sky130_fd_pr__nfet_g5v0d10v5 ad=1e+11p pd=1.4e+06u as=0p ps=0u w=1e+06u l=500000u
X232 a_n405_1065# a_n725_1050# a_n725_1050# VDDA sky130_fd_pr__pfet_g5v0d10v5 ad=1e+11p pd=1.4e+06u as=0p ps=0u w=1e+06u l=500000u
X233 a_n6345_1845# a_n7205_1795# a_n6435_1845# VSSA sky130_fd_pr__nfet_g5v0d10v5 ad=0p pd=0u as=0p ps=0u w=1e+06u l=500000u
X234 X INP YP VDDA sky130_fd_pr__pfet_g5v0d10v5 ad=0p pd=0u as=0p ps=0u w=1e+06u l=500000u
X235 a_n2475_50# N1 YP VSSA sky130_fd_pr__nfet_g5v0d10v5 ad=0p pd=0u as=0p ps=0u w=1e+06u l=500000u
X236 X INM YM VDDA sky130_fd_pr__pfet_g5v0d10v5 ad=0p pd=0u as=0p ps=0u w=1e+06u l=500000u
X237 a_n10665_830# P1 a_n10755_830# VDDA sky130_fd_pr__pfet_g5v0d10v5 ad=1e+11p pd=1.4e+06u as=0p ps=0u w=1e+06u l=500000u
X238 VSSA N1 a_n3735_50# VSSA sky130_fd_pr__nfet_g5v0d10v5 ad=0p pd=0u as=0p ps=0u w=1e+06u l=500000u
X239 Z N2 a_n3735_1845# VSSA sky130_fd_pr__nfet_g5v0d10v5 ad=0p pd=0u as=0p ps=0u w=1e+06u l=500000u
X240 a_n8055_50# a_n10085_35# a_n8145_50# VSSA sky130_fd_pr__nfet_g5v0d10v5 ad=1e+11p pd=1.4e+06u as=0p ps=0u w=1e+06u l=500000u
X241 a_n9225_50# a_n10085_35# a_n9315_50# VSSA sky130_fd_pr__nfet_g5v0d10v5 ad=1e+11p pd=1.4e+06u as=0p ps=0u w=1e+06u l=500000u
X242 a_n2565_830# P2 a_n2655_830# VDDA sky130_fd_pr__pfet_g5v0d10v5 ad=1e+11p pd=1.4e+06u as=0p ps=0u w=1e+06u l=500000u
X243 a_n1215_1845# N2 a_n1305_1845# VSSA sky130_fd_pr__nfet_g5v0d10v5 ad=1e+11p pd=1.4e+06u as=0p ps=0u w=1e+06u l=500000u
X244 YP INP X VDDA sky130_fd_pr__pfet_g5v0d10v5 ad=0p pd=0u as=0p ps=0u w=1e+06u l=500000u
X245 YP N1 a_n10575_50# VSSA sky130_fd_pr__nfet_g5v0d10v5 ad=0p pd=0u as=0p ps=0u w=1e+06u l=500000u
X246 a_n6885_1845# a_n7205_1795# a_n6975_1845# VSSA sky130_fd_pr__nfet_g5v0d10v5 ad=1e+11p pd=1.4e+06u as=1e+11p ps=1.4e+06u w=1e+06u l=500000u
X247 X INP YP VDDA sky130_fd_pr__pfet_g5v0d10v5 ad=0p pd=0u as=0p ps=0u w=1e+06u l=500000u